
---------- Begin Simulation Statistics ----------
host_inst_rate                                  12552                      
host_mem_usage                                 202596                      
host_seconds                                 65985.01                      
host_tick_rate                                  51755                      
sim_freq                                    250000000                      
sim_insts                                   828254565                      
sim_seconds                                 13.660305                      
sim_ticks                                  3415076201                      
system.cpu0.COM:IPB                          5.978322                      
system.cpu0.COM:IPC                          0.018556                      
system.cpu0.COM:branches                     10600082                      
system.cpu0.COM:bw_lim_avg               <err: div-0>                      
system.cpu0.COM:bw_lim_events                       0                      
system.cpu0.COM:bw_lim_rate                    0.0000                      
system.cpu0.COM:bw_lim_stdev_0_mean      <err: div-0>                      
system.cpu0.COM:bw_lim_stdev_0_stdev     <err: div-0>                      
**Ignore: system.cpu0.COM:bw_lim_stdev_0_TOT       0.0000                      
system.cpu0.COM:bw_limited                          0                      
system.cpu0.COM:committed_per_cycle.start_dist
system.cpu0.COM:committed_per_cycle.samples     24617673                      
system.cpu0.COM:committed_per_cycle.min_value            0                      
                               0       321007    130.40%           
                               1      7588793   3082.66%           
                               2      4414152   1793.08%           
                               3      2094514    850.82%           
                               4     10199207   4143.04%           
system.cpu0.COM:committed_per_cycle.max_value            4                      
system.cpu0.COM:committed_per_cycle.end_dist

system.cpu0.COM:count                        63370703                      
system.cpu0.COM:loads                        10964044                      
system.cpu0.COM:membars                        262535                      
system.cpu0.COM:refs                         17531147                      
system.cpu0.COM:stores                        6567103                      
system.cpu0.COM:swp_count                      126764                      
system.cpu0.DDQ:count                      7033774354                      
system.cpu0.DDQ:rate                                2                      
system.cpu0.DIS:chain_creation.start_dist
     Inst has no outstanding IDEPS            0      0.00%           
      IDEP chain reached max depth            0      0.00%           
                    Inst is a load            0      0.00%           
  Chain has multiple chained IDEPS            0      0.00%           
system.cpu0.DIS:chain_creation.end_dist
system.cpu0.DIS:chain_head_frac                     0                      
system.cpu0.DIS:chain_heads                         0                      
system.cpu0.DIS:chains_insuf                        0                      
system.cpu0.DIS:chains_insuf_rate                   0                      
system.cpu0.DIS:count                        78334279                      
system.cpu0.DIS:insufficient_chains                 0                      
system.cpu0.DIS:mod_n_stall_avg_free     <err: div-0>                      
system.cpu0.DIS:mod_n_stall_frac                    0                      
system.cpu0.DIS:mod_n_stall_free                    0                      
system.cpu0.DIS:mod_n_stalls                        0                      
system.cpu0.DIS:one_rdy_insts                       0                      
system.cpu0.DIS:one_rdy_ratio            <err: div-0>                      
system.cpu0.DIS:op_count                    100194480                      
system.cpu0.DIS:op_rate                      0.029339                      
system.cpu0.DIS:rate                         0.022938                      
system.cpu0.DIS:second_choice_clust                 0                      
system.cpu0.DIS:second_choice_stall                 0                      
system.cpu0.DIS:serialize_stall_cycles        7472047                      
system.cpu0.DIS:serializing_insts              310222                      
system.cpu0.DIS:two_input_insts                     0                      
system.cpu0.DIS:two_input_ratio                     0                      
system.cpu0.FETCH:branch_count               29236489                      
system.cpu0.FETCH:branch_rate                0.008561                      
system.cpu0.FETCH:chance_pct                        1                      
system.cpu0.FETCH:chances                    38732745                      
system.cpu0.FETCH:choice                     38732745                      
system.cpu0.FETCH:count                     130695728                      
system.cpu0.FETCH:decisions                  38732745                      
system.cpu0.FETCH:idle_cycles              3376343457                      
system.cpu0.FETCH:idle_icache_blocked_cycles            0                      
system.cpu0.FETCH:idle_rate                     98.87                      
system.cpu0.FETCH:prio_changes                      0                      
system.cpu0.FETCH:rate                       0.038270                      
system.cpu0.FETCH:rate_dist.start_dist    
system.cpu0.FETCH:rate_dist.samples          38732745                      
system.cpu0.FETCH:rate_dist.min_value               0                      
                               0        49374     12.75%           
                               1      4918592   1269.88%           
                               2      1808013    466.79%           
                               3      5665954   1462.83%           
                               4     26290812   6787.75%           
system.cpu0.FETCH:rate_dist.max_value               4                      
system.cpu0.FETCH:rate_dist.end_dist

system.cpu0.FETCH:rate_dist_0.start_dist  
system.cpu0.FETCH:rate_dist_0.samples        38732745                      
system.cpu0.FETCH:rate_dist_0.min_value             0                      
                               0        49374     12.75%           
                               1      4918592   1269.88%           
                               2      1808013    466.79%           
                               3      5665954   1462.83%           
                               4     26290812   6787.75%           
system.cpu0.FETCH:rate_dist_0.max_value             4                      
system.cpu0.FETCH:rate_dist_0.end_dist

system.cpu0.IFQ:count                      3108484650                      
system.cpu0.IFQ:full_count                   90682845                      
system.cpu0.IFQ:full_rate                    2.655368                      
system.cpu0.IFQ:latency                     39.682304                      
system.cpu0.IFQ:occupancy                    0.910224                      
system.cpu0.IFQ:qfull_iq_occ               4817793982                      
system.cpu0.IFQ:qfull_iq_occ_dist_0.start_dist
system.cpu0.IFQ:qfull_iq_occ_dist_0.samples     79887506                      
system.cpu0.IFQ:qfull_iq_occ_dist_0.min_value            0                      
                               0      3879267    485.59%           
                              10       429049     53.71%           
                              20       385420     48.25%           
                              30       326182     40.83%           
                              40       216090     27.05%           
                              50       231096     28.93%           
                              60     74420402   9315.65%           
system.cpu0.IFQ:qfull_iq_occ_dist_0.max_value           64                      
system.cpu0.IFQ:qfull_iq_occ_dist_0.end_dist

system.cpu0.IFQ:qfull_rob_occ              7433548049                      
system.cpu0.IFQ:qfull_rob_occ_dist_0.start_dist
system.cpu0.IFQ:qfull_rob_occ_dist_0.samples     79887506                      
system.cpu0.IFQ:qfull_rob_occ_dist_0.min_value            1                      
                               0      1116908    139.81%           
                              10      1077867    134.92%           
                              20       695223     87.03%           
                              30       291844     36.53%           
                              40       167122     20.92%           
                              50       127454     15.95%           
                              60      2623715    328.43%           
                              70       619117     77.50%           
                              80       265197     33.20%           
                              90     70362742   8807.73%           
                             100       466258     58.36%           
                             110       627468     78.54%           
                             120      1446591    181.08%           
                             130            0      0.00%           
system.cpu0.IFQ:qfull_rob_occ_dist_0.max_value          128                      
system.cpu0.IFQ:qfull_rob_occ_dist_0.end_dist

system.cpu0.IQ:cap_events                           0                      
system.cpu0.IQ:cap_inst                             0                      
system.cpu0.IQ:residence:(null).start_dist
system.cpu0.IQ:residence:(null).samples          2792                      
system.cpu0.IQ:residence:(null).min_value            1                      
                               0         2504   8968.48%   8968.48%
                               2          190    680.52%   9649.00%
                               4           51    182.66%   9831.66%
                               6            9     32.23%   9863.90%
                               8           32    114.61%   9978.51%
                              10            4     14.33%   9992.84%
                              12            1      3.58%   9996.42%
                              14            0      0.00%   9996.42%
                              16            0      0.00%   9996.42%
                              18            1      3.58%  10000.00%
                              20            0      0.00%  10000.00%
                              22            0      0.00%  10000.00%
                              24            0      0.00%  10000.00%
                              26            0      0.00%  10000.00%
                              28            0      0.00%  10000.00%
                              30            0      0.00%  10000.00%
                              32            0      0.00%  10000.00%
                              34            0      0.00%  10000.00%
                              36            0      0.00%  10000.00%
                              38            0      0.00%  10000.00%
                              40            0      0.00%  10000.00%
                              42            0      0.00%  10000.00%
                              44            0      0.00%  10000.00%
                              46            0      0.00%  10000.00%
                              48            0      0.00%  10000.00%
                              50            0      0.00%  10000.00%
                              52            0      0.00%  10000.00%
                              54            0      0.00%  10000.00%
                              56            0      0.00%  10000.00%
                              58            0      0.00%  10000.00%
                              60            0      0.00%  10000.00%
                              62            0      0.00%  10000.00%
                              64            0      0.00%  10000.00%
                              66            0      0.00%  10000.00%
                              68            0      0.00%  10000.00%
                              70            0      0.00%  10000.00%
                              72            0      0.00%  10000.00%
                              74            0      0.00%  10000.00%
                              76            0      0.00%  10000.00%
                              78            0      0.00%  10000.00%
                              80            0      0.00%  10000.00%
                              82            0      0.00%  10000.00%
                              84            0      0.00%  10000.00%
                              86            0      0.00%  10000.00%
                              88            0      0.00%  10000.00%
                              90            0      0.00%  10000.00%
                              92            0      0.00%  10000.00%
                              94            0      0.00%  10000.00%
                              96            0      0.00%  10000.00%
                              98            0      0.00%  10000.00%
system.cpu0.IQ:residence:(null).max_value           19                      
system.cpu0.IQ:residence:(null).end_dist

system.cpu0.IQ:residence:IntAlu.start_dist
system.cpu0.IQ:residence:IntAlu.samples      48934658                      
system.cpu0.IQ:residence:IntAlu.min_value            1                      
                               0     11736915   2398.49%   2398.49%
                               2      6752988   1380.00%   3778.49%
                               4      4392972    897.72%   4676.21%
                               6      3038745    620.98%   5297.19%
                               8      2337917    477.76%   5774.95%
                              10      1537029    314.10%   6089.05%
                              12      1717130    350.90%   6439.95%
                              14      1535417    313.77%   6753.72%
                              16      1847826    377.61%   7131.33%
                              18      1549264    316.60%   7447.93%
                              20      1759089    359.48%   7807.41%
                              22      1243926    254.20%   8061.61%
                              24       715803    146.28%   8207.89%
                              26       443514     90.63%   8298.52%
                              28       474696     97.01%   8395.53%
                              30       352736     72.08%   8467.61%
                              32       339764     69.43%   8537.04%
                              34       229319     46.86%   8583.91%
                              36       273578     55.91%   8639.81%
                              38       279030     57.02%   8696.83%
                              40       201263     41.13%   8737.96%
                              42       194169     39.68%   8777.64%
                              44       205331     41.96%   8819.60%
                              46       157643     32.21%   8851.82%
                              48       105837     21.63%   8873.45%
                              50       149582     30.57%   8904.01%
                              52       159885     32.67%   8936.69%
                              54       155374     31.75%   8968.44%
                              56        54581     11.15%   8979.59%
                              58        62042     12.68%   8992.27%
                              60        56994     11.65%   9003.92%
                              62        37736      7.71%   9011.63%
                              64        35662      7.29%   9018.92%
                              66        41558      8.49%   9027.41%
                              68        32168      6.57%   9033.98%
                              70        28000      5.72%   9039.70%
                              72        38167      7.80%   9047.50%
                              74        31264      6.39%   9053.89%
                              76        36324      7.42%   9061.32%
                              78        40335      8.24%   9069.56%
                              80        25148      5.14%   9074.70%
                              82        30703      6.27%   9080.97%
                              84        30385      6.21%   9087.18%
                              86        29661      6.06%   9093.24%
                              88        32059      6.55%   9099.79%
                              90        32989      6.74%   9106.54%
                              92        20932      4.28%   9110.81%
                              94        22991      4.70%   9115.51%
                              96        26140      5.34%   9120.85%
                              98        13647      2.79%   9123.64%
system.cpu0.IQ:residence:IntAlu.overflows      4288430                      
system.cpu0.IQ:residence:IntAlu.max_value        19295                      
system.cpu0.IQ:residence:IntAlu.end_dist

system.cpu0.IQ:residence:IntMult.start_dist
system.cpu0.IQ:residence:IntMult.samples        79211                      
system.cpu0.IQ:residence:IntMult.min_value            1                      
                               0         1249    157.68%    157.68%
                               2          788     99.48%    257.16%
                               4         5431    685.64%    942.80%
                               6         3049    384.92%   1327.72%
                               8         3743    472.54%   1800.26%
                              10         3380    426.71%   2226.96%
                              12         2050    258.80%   2485.77%
                              14         2514    317.38%   2803.15%
                              16        15780   1992.15%   4795.29%
                              18         2902    366.36%   5161.66%
                              20         8553   1079.77%   6241.43%
                              22        11074   1398.04%   7639.47%
                              24         2456    310.06%   7949.53%
                              26          450     56.81%   8006.34%
                              28          154     19.44%   8025.78%
                              30          822    103.77%   8129.55%
                              32          732     92.41%   8221.96%
                              34         1237    156.17%   8378.13%
                              36         1199    151.37%   8529.50%
                              38         1615    203.89%   8733.38%
                              40         4776    602.95%   9336.33%
                              42          983    124.10%   9460.43%
                              44          212     26.76%   9487.19%
                              46          107     13.51%   9500.70%
                              48          232     29.29%   9529.99%
                              50           81     10.23%   9540.22%
                              52          294     37.12%   9577.33%
                              54           55      6.94%   9584.27%
                              56          131     16.54%   9600.81%
                              58           20      2.52%   9603.34%
                              60           12      1.51%   9604.85%
                              62           26      3.28%   9608.14%
                              64           20      2.52%   9610.66%
                              66           28      3.53%   9614.19%
                              68           26      3.28%   9617.48%
                              70          141     17.80%   9635.28%
                              72          117     14.77%   9650.05%
                              74          145     18.31%   9668.35%
                              76           48      6.06%   9674.41%
                              78          249     31.44%   9705.85%
                              80           96     12.12%   9717.97%
                              82          235     29.67%   9747.64%
                              84           19      2.40%   9750.03%
                              86           11      1.39%   9751.42%
                              88            8      1.01%   9752.43%
                              90           11      1.39%   9753.82%
                              92            5      0.63%   9754.45%
                              94            3      0.38%   9754.83%
                              96            2      0.25%   9755.08%
                              98            7      0.88%   9755.97%
system.cpu0.IQ:residence:IntMult.overflows         1933                      
system.cpu0.IQ:residence:IntMult.max_value          569                      
system.cpu0.IQ:residence:IntMult.end_dist

system.cpu0.IQ:residence:IntDiv.start_dist
system.cpu0.IQ:residence:IntDiv.samples             0                      
system.cpu0.IQ:residence:IntDiv.min_value            0                      
                               0            0                      
                               2            0                      
                               4            0                      
                               6            0                      
                               8            0                      
                              10            0                      
                              12            0                      
                              14            0                      
                              16            0                      
                              18            0                      
                              20            0                      
                              22            0                      
                              24            0                      
                              26            0                      
                              28            0                      
                              30            0                      
                              32            0                      
                              34            0                      
                              36            0                      
                              38            0                      
                              40            0                      
                              42            0                      
                              44            0                      
                              46            0                      
                              48            0                      
                              50            0                      
                              52            0                      
                              54            0                      
                              56            0                      
                              58            0                      
                              60            0                      
                              62            0                      
                              64            0                      
                              66            0                      
                              68            0                      
                              70            0                      
                              72            0                      
                              74            0                      
                              76            0                      
                              78            0                      
                              80            0                      
                              82            0                      
                              84            0                      
                              86            0                      
                              88            0                      
                              90            0                      
                              92            0                      
                              94            0                      
                              96            0                      
                              98            0                      
system.cpu0.IQ:residence:IntDiv.max_value            0                      
system.cpu0.IQ:residence:IntDiv.end_dist

system.cpu0.IQ:residence:FloatAdd.start_dist
system.cpu0.IQ:residence:FloatAdd.samples         6790                      
system.cpu0.IQ:residence:FloatAdd.min_value            1                      
                               0          118    173.78%    173.78%
                               2          133    195.88%    369.66%
                               4          204    300.44%    670.10%
                               6         1938   2854.20%   3524.30%
                               8            6      8.84%   3533.14%
                              10          485    714.29%   4247.42%
                              12          233    343.15%   4590.57%
                              14          795   1170.84%   5761.41%
                              16         1424   2097.20%   7858.62%
                              18            0      0.00%   7858.62%
                              20            0      0.00%   7858.62%
                              22            0      0.00%   7858.62%
                              24            0      0.00%   7858.62%
                              26            0      0.00%   7858.62%
                              28            0      0.00%   7858.62%
                              30            0      0.00%   7858.62%
                              32            3      4.42%   7863.03%
                              34           37     54.49%   7917.53%
                              36          610    898.38%   8815.91%
                              38          793   1167.89%   9983.80%
                              40            0      0.00%   9983.80%
                              42            0      0.00%   9983.80%
                              44            0      0.00%   9983.80%
                              46            0      0.00%   9983.80%
                              48            2      2.95%   9986.75%
                              50            0      0.00%   9986.75%
                              52            0      0.00%   9986.75%
                              54            0      0.00%   9986.75%
                              56            0      0.00%   9986.75%
                              58            0      0.00%   9986.75%
                              60            1      1.47%   9988.22%
                              62            0      0.00%   9988.22%
                              64            0      0.00%   9988.22%
                              66            0      0.00%   9988.22%
                              68            0      0.00%   9988.22%
                              70            1      1.47%   9989.69%
                              72            0      0.00%   9989.69%
                              74            3      4.42%   9994.11%
                              76            1      1.47%   9995.58%
                              78            0      0.00%   9995.58%
                              80            3      4.42%  10000.00%
                              82            0      0.00%  10000.00%
                              84            0      0.00%  10000.00%
                              86            0      0.00%  10000.00%
                              88            0      0.00%  10000.00%
                              90            0      0.00%  10000.00%
                              92            0      0.00%  10000.00%
                              94            0      0.00%  10000.00%
                              96            0      0.00%  10000.00%
                              98            0      0.00%  10000.00%
system.cpu0.IQ:residence:FloatAdd.max_value           81                      
system.cpu0.IQ:residence:FloatAdd.end_dist

system.cpu0.IQ:residence:FloatCmp.start_dist
system.cpu0.IQ:residence:FloatCmp.samples            0                      
system.cpu0.IQ:residence:FloatCmp.min_value            0                      
                               0            0                      
                               2            0                      
                               4            0                      
                               6            0                      
                               8            0                      
                              10            0                      
                              12            0                      
                              14            0                      
                              16            0                      
                              18            0                      
                              20            0                      
                              22            0                      
                              24            0                      
                              26            0                      
                              28            0                      
                              30            0                      
                              32            0                      
                              34            0                      
                              36            0                      
                              38            0                      
                              40            0                      
                              42            0                      
                              44            0                      
                              46            0                      
                              48            0                      
                              50            0                      
                              52            0                      
                              54            0                      
                              56            0                      
                              58            0                      
                              60            0                      
                              62            0                      
                              64            0                      
                              66            0                      
                              68            0                      
                              70            0                      
                              72            0                      
                              74            0                      
                              76            0                      
                              78            0                      
                              80            0                      
                              82            0                      
                              84            0                      
                              86            0                      
                              88            0                      
                              90            0                      
                              92            0                      
                              94            0                      
                              96            0                      
                              98            0                      
system.cpu0.IQ:residence:FloatCmp.max_value            0                      
system.cpu0.IQ:residence:FloatCmp.end_dist

system.cpu0.IQ:residence:FloatCvt.start_dist
system.cpu0.IQ:residence:FloatCvt.samples            0                      
system.cpu0.IQ:residence:FloatCvt.min_value            0                      
                               0            0                      
                               2            0                      
                               4            0                      
                               6            0                      
                               8            0                      
                              10            0                      
                              12            0                      
                              14            0                      
                              16            0                      
                              18            0                      
                              20            0                      
                              22            0                      
                              24            0                      
                              26            0                      
                              28            0                      
                              30            0                      
                              32            0                      
                              34            0                      
                              36            0                      
                              38            0                      
                              40            0                      
                              42            0                      
                              44            0                      
                              46            0                      
                              48            0                      
                              50            0                      
                              52            0                      
                              54            0                      
                              56            0                      
                              58            0                      
                              60            0                      
                              62            0                      
                              64            0                      
                              66            0                      
                              68            0                      
                              70            0                      
                              72            0                      
                              74            0                      
                              76            0                      
                              78            0                      
                              80            0                      
                              82            0                      
                              84            0                      
                              86            0                      
                              88            0                      
                              90            0                      
                              92            0                      
                              94            0                      
                              96            0                      
                              98            0                      
system.cpu0.IQ:residence:FloatCvt.max_value            0                      
system.cpu0.IQ:residence:FloatCvt.end_dist

system.cpu0.IQ:residence:FloatMult.start_dist
system.cpu0.IQ:residence:FloatMult.samples            0                      
system.cpu0.IQ:residence:FloatMult.min_value            0                      
                               0            0                      
                               2            0                      
                               4            0                      
                               6            0                      
                               8            0                      
                              10            0                      
                              12            0                      
                              14            0                      
                              16            0                      
                              18            0                      
                              20            0                      
                              22            0                      
                              24            0                      
                              26            0                      
                              28            0                      
                              30            0                      
                              32            0                      
                              34            0                      
                              36            0                      
                              38            0                      
                              40            0                      
                              42            0                      
                              44            0                      
                              46            0                      
                              48            0                      
                              50            0                      
                              52            0                      
                              54            0                      
                              56            0                      
                              58            0                      
                              60            0                      
                              62            0                      
                              64            0                      
                              66            0                      
                              68            0                      
                              70            0                      
                              72            0                      
                              74            0                      
                              76            0                      
                              78            0                      
                              80            0                      
                              82            0                      
                              84            0                      
                              86            0                      
                              88            0                      
                              90            0                      
                              92            0                      
                              94            0                      
                              96            0                      
                              98            0                      
system.cpu0.IQ:residence:FloatMult.max_value            0                      
system.cpu0.IQ:residence:FloatMult.end_dist

system.cpu0.IQ:residence:FloatDiv.start_dist
system.cpu0.IQ:residence:FloatDiv.samples           66                      
system.cpu0.IQ:residence:FloatDiv.min_value            6                      
                               0            0      0.00%      0.00%
                               2            0      0.00%      0.00%
                               4            0      0.00%      0.00%
                               6           65   9848.48%   9848.48%
                               8            0      0.00%   9848.48%
                              10            0      0.00%   9848.48%
                              12            0      0.00%   9848.48%
                              14            0      0.00%   9848.48%
                              16            0      0.00%   9848.48%
                              18            0      0.00%   9848.48%
                              20            0      0.00%   9848.48%
                              22            0      0.00%   9848.48%
                              24            0      0.00%   9848.48%
                              26            0      0.00%   9848.48%
                              28            0      0.00%   9848.48%
                              30            0      0.00%   9848.48%
                              32            0      0.00%   9848.48%
                              34            0      0.00%   9848.48%
                              36            0      0.00%   9848.48%
                              38            0      0.00%   9848.48%
                              40            0      0.00%   9848.48%
                              42            0      0.00%   9848.48%
                              44            0      0.00%   9848.48%
                              46            0      0.00%   9848.48%
                              48            0      0.00%   9848.48%
                              50            1    151.52%  10000.00%
                              52            0      0.00%  10000.00%
                              54            0      0.00%  10000.00%
                              56            0      0.00%  10000.00%
                              58            0      0.00%  10000.00%
                              60            0      0.00%  10000.00%
                              62            0      0.00%  10000.00%
                              64            0      0.00%  10000.00%
                              66            0      0.00%  10000.00%
                              68            0      0.00%  10000.00%
                              70            0      0.00%  10000.00%
                              72            0      0.00%  10000.00%
                              74            0      0.00%  10000.00%
                              76            0      0.00%  10000.00%
                              78            0      0.00%  10000.00%
                              80            0      0.00%  10000.00%
                              82            0      0.00%  10000.00%
                              84            0      0.00%  10000.00%
                              86            0      0.00%  10000.00%
                              88            0      0.00%  10000.00%
                              90            0      0.00%  10000.00%
                              92            0      0.00%  10000.00%
                              94            0      0.00%  10000.00%
                              96            0      0.00%  10000.00%
                              98            0      0.00%  10000.00%
system.cpu0.IQ:residence:FloatDiv.max_value           50                      
system.cpu0.IQ:residence:FloatDiv.end_dist

system.cpu0.IQ:residence:FloatSqrt.start_dist
system.cpu0.IQ:residence:FloatSqrt.samples            0                      
system.cpu0.IQ:residence:FloatSqrt.min_value            0                      
                               0            0                      
                               2            0                      
                               4            0                      
                               6            0                      
                               8            0                      
                              10            0                      
                              12            0                      
                              14            0                      
                              16            0                      
                              18            0                      
                              20            0                      
                              22            0                      
                              24            0                      
                              26            0                      
                              28            0                      
                              30            0                      
                              32            0                      
                              34            0                      
                              36            0                      
                              38            0                      
                              40            0                      
                              42            0                      
                              44            0                      
                              46            0                      
                              48            0                      
                              50            0                      
                              52            0                      
                              54            0                      
                              56            0                      
                              58            0                      
                              60            0                      
                              62            0                      
                              64            0                      
                              66            0                      
                              68            0                      
                              70            0                      
                              72            0                      
                              74            0                      
                              76            0                      
                              78            0                      
                              80            0                      
                              82            0                      
                              84            0                      
                              86            0                      
                              88            0                      
                              90            0                      
                              92            0                      
                              94            0                      
                              96            0                      
                              98            0                      
system.cpu0.IQ:residence:FloatSqrt.max_value            0                      
system.cpu0.IQ:residence:FloatSqrt.end_dist

system.cpu0.IQ:residence:MemRead.start_dist
system.cpu0.IQ:residence:MemRead.samples     24353921                      
system.cpu0.IQ:residence:MemRead.min_value            1                      
                               0      2540717   1043.25%   1043.25%
                               2      4059926   1667.05%   2710.30%
                               4      2431135    998.25%   3708.55%
                               6      1905255    782.32%   4490.87%
                               8      1241163    509.64%   5000.51%
                              10      1209122    496.48%   5496.99%
                              12      1093101    448.84%   5945.83%
                              14      1053461    432.56%   6378.39%
                              16      1113415    457.18%   6835.57%
                              18       974852    400.29%   7235.86%
                              20       974775    400.25%   7636.11%
                              22       684823    281.20%   7917.31%
                              24       399639    164.10%   8081.40%
                              26       120460     49.46%   8130.86%
                              28       159001     65.29%   8196.15%
                              30       177977     73.08%   8269.23%
                              32        61334     25.18%   8294.42%
                              34        71714     29.45%   8323.86%
                              36        90159     37.02%   8360.88%
                              38        80400     33.01%   8393.90%
                              40        70281     28.86%   8422.75%
                              42        78099     32.07%   8454.82%
                              44        51865     21.30%   8476.12%
                              46        95690     39.29%   8515.41%
                              48        38159     15.67%   8531.08%
                              50        78612     32.28%   8563.36%
                              52        42215     17.33%   8580.69%
                              54        52778     21.67%   8602.36%
                              56        37599     15.44%   8617.80%
                              58        29476     12.10%   8629.91%
                              60        24589     10.10%   8640.00%
                              62        23403      9.61%   8649.61%
                              64        23430      9.62%   8659.23%
                              66        23814      9.78%   8669.01%
                              68        21871      8.98%   8677.99%
                              70        16497      6.77%   8684.76%
                              72        16163      6.64%   8691.40%
                              74        13725      5.64%   8697.04%
                              76        13409      5.51%   8702.54%
                              78        26878     11.04%   8713.58%
                              80        18004      7.39%   8720.97%
                              82        14394      5.91%   8726.88%
                              84        16415      6.74%   8733.62%
                              86        22479      9.23%   8742.85%
                              88         8259      3.39%   8746.24%
                              90         9930      4.08%   8750.32%
                              92        13793      5.66%   8755.98%
                              94        13744      5.64%   8761.63%
                              96        15619      6.41%   8768.04%
                              98        12059      4.95%   8772.99%
system.cpu0.IQ:residence:MemRead.overflows      2988243                      
system.cpu0.IQ:residence:MemRead.max_value        19290                      
system.cpu0.IQ:residence:MemRead.end_dist

system.cpu0.IQ:residence:MemWrite.start_dist
system.cpu0.IQ:residence:MemWrite.samples     13769302                      
system.cpu0.IQ:residence:MemWrite.min_value            1                      
                               0      1253667    910.48%    910.48%
                               2      2923370   2123.11%   3033.59%
                               4      1808868   1313.70%   4347.28%
                               6      1372714    996.94%   5344.22%
                               8      1133115    822.93%   6167.15%
                              10       637245    462.80%   6629.95%
                              12       530074    384.97%   7014.92%
                              14       512501    372.21%   7387.12%
                              16       628679    456.58%   7843.70%
                              18       480746    349.14%   8192.85%
                              20       598148    434.41%   8627.25%
                              22       354575    257.51%   8884.77%
                              24       285608    207.42%   9092.19%
                              26        61554     44.70%   9136.89%
                              28        66790     48.51%   9185.40%
                              30        69221     50.27%   9235.67%
                              32        68170     49.51%   9285.18%
                              34        80740     58.64%   9343.82%
                              36        93117     67.63%   9411.44%
                              38        78610     57.09%   9468.54%
                              40        74299     53.96%   9522.50%
                              42        54603     39.66%   9562.15%
                              44        54260     39.41%   9601.56%
                              46        34231     24.86%   9626.42%
                              48        27194     19.75%   9646.17%
                              50       125537     91.17%   9737.34%
                              52        28952     21.03%   9758.37%
                              54        16499     11.98%   9770.35%
                              56        17349     12.60%   9782.95%
                              58         9458      6.87%   9789.82%
                              60        20021     14.54%   9804.36%
                              62        11749      8.53%   9812.89%
                              64        10490      7.62%   9820.51%
                              66         9048      6.57%   9827.08%
                              68         9488      6.89%   9833.97%
                              70        11671      8.48%   9842.45%
                              72        10332      7.50%   9849.95%
                              74         9051      6.57%   9856.52%
                              76        14146     10.27%   9866.80%
                              78        13331      9.68%   9876.48%
                              80         9853      7.16%   9883.63%
                              82         8062      5.86%   9889.49%
                              84         6471      4.70%   9894.19%
                              86         4039      2.93%   9897.12%
                              88         3756      2.73%   9899.85%
                              90         2600      1.89%   9901.74%
                              92         5786      4.20%   9905.94%
                              94         5025      3.65%   9909.59%
                              96         1993      1.45%   9911.04%
                              98         1849      1.34%   9912.38%
system.cpu0.IQ:residence:MemWrite.overflows       120647                      
system.cpu0.IQ:residence:MemWrite.max_value        19295                      
system.cpu0.IQ:residence:MemWrite.end_dist

system.cpu0.IQ:residence:IprAccess.start_dist
system.cpu0.IQ:residence:IprAccess.samples      1442029                      
system.cpu0.IQ:residence:IprAccess.min_value            1                      
                               0       275285   1909.01%   1909.01%
                               2       257903   1788.47%   3697.48%
                               4        83565    579.50%   4276.98%
                               6       277243   1922.59%   6199.57%
                               8       225794   1565.81%   7765.38%
                              10        68671    476.21%   8241.59%
                              12        61622    427.33%   8668.92%
                              14        13789     95.62%   8764.54%
                              16        58109    402.97%   9167.51%
                              18        35236    244.35%   9411.86%
                              20        26238    181.95%   9593.81%
                              22        14146     98.10%   9691.91%
                              24         3977     27.58%   9719.49%
                              26         8472     58.75%   9778.24%
                              28        12142     84.20%   9862.44%
                              30          458      3.18%   9865.61%
                              32          696      4.83%   9870.44%
                              34          936      6.49%   9876.93%
                              36         1312      9.10%   9886.03%
                              38         1764     12.23%   9898.26%
                              40          351      2.43%   9900.70%
                              42          213      1.48%   9902.17%
                              44          683      4.74%   9906.91%
                              46          860      5.96%   9912.87%
                              48          992      6.88%   9919.75%
                              50          739      5.12%   9924.88%
                              52          769      5.33%   9930.21%
                              54          472      3.27%   9933.48%
                              56          560      3.88%   9937.37%
                              58         1077      7.47%   9944.83%
                              60          933      6.47%   9951.30%
                              62          336      2.33%   9953.63%
                              64          874      6.06%   9959.70%
                              66          370      2.57%   9962.26%
                              68          110      0.76%   9963.02%
                              70          286      1.98%   9965.01%
                              72          342      2.37%   9967.38%
                              74          237      1.64%   9969.02%
                              76          217      1.50%   9970.53%
                              78          237      1.64%   9972.17%
                              80          371      2.57%   9974.74%
                              82          223      1.55%   9976.29%
                              84          173      1.20%   9977.49%
                              86          574      3.98%   9981.47%
                              88          267      1.85%   9983.32%
                              90          323      2.24%   9985.56%
                              92          231      1.60%   9987.16%
                              94          213      1.48%   9988.64%
                              96          119      0.83%   9989.47%
                              98          132      0.92%   9990.38%
system.cpu0.IQ:residence:IprAccess.overflows         1387                      
system.cpu0.IQ:residence:IprAccess.max_value          200                      
system.cpu0.IQ:residence:IprAccess.end_dist

system.cpu0.IQ:residence:InstPrefetch.start_dist
system.cpu0.IQ:residence:InstPrefetch.samples            0                      
system.cpu0.IQ:residence:InstPrefetch.min_value            0                      
                               0            0                      
                               2            0                      
                               4            0                      
                               6            0                      
                               8            0                      
                              10            0                      
                              12            0                      
                              14            0                      
                              16            0                      
                              18            0                      
                              20            0                      
                              22            0                      
                              24            0                      
                              26            0                      
                              28            0                      
                              30            0                      
                              32            0                      
                              34            0                      
                              36            0                      
                              38            0                      
                              40            0                      
                              42            0                      
                              44            0                      
                              46            0                      
                              48            0                      
                              50            0                      
                              52            0                      
                              54            0                      
                              56            0                      
                              58            0                      
                              60            0                      
                              62            0                      
                              64            0                      
                              66            0                      
                              68            0                      
                              70            0                      
                              72            0                      
                              74            0                      
                              76            0                      
                              78            0                      
                              80            0                      
                              82            0                      
                              84            0                      
                              86            0                      
                              88            0                      
                              90            0                      
                              92            0                      
                              94            0                      
                              96            0                      
                              98            0                      
system.cpu0.IQ:residence:InstPrefetch.max_value            0                      
system.cpu0.IQ:residence:InstPrefetch.end_dist

system.cpu0.ISSUE:(null)_delay.start_dist 
system.cpu0.ISSUE:(null)_delay.samples           2792                      
system.cpu0.ISSUE:(null)_delay.min_value            1                      
                               0         2504   8968.48%   8968.48%
                               2          190    680.52%   9649.00%
                               4           51    182.66%   9831.66%
                               6            9     32.23%   9863.90%
                               8           32    114.61%   9978.51%
                              10            4     14.33%   9992.84%
                              12            1      3.58%   9996.42%
                              14            0      0.00%   9996.42%
                              16            0      0.00%   9996.42%
                              18            1      3.58%  10000.00%
                              20            0      0.00%  10000.00%
                              22            0      0.00%  10000.00%
                              24            0      0.00%  10000.00%
                              26            0      0.00%  10000.00%
                              28            0      0.00%  10000.00%
                              30            0      0.00%  10000.00%
                              32            0      0.00%  10000.00%
                              34            0      0.00%  10000.00%
                              36            0      0.00%  10000.00%
                              38            0      0.00%  10000.00%
                              40            0      0.00%  10000.00%
                              42            0      0.00%  10000.00%
                              44            0      0.00%  10000.00%
                              46            0      0.00%  10000.00%
                              48            0      0.00%  10000.00%
                              50            0      0.00%  10000.00%
                              52            0      0.00%  10000.00%
                              54            0      0.00%  10000.00%
                              56            0      0.00%  10000.00%
                              58            0      0.00%  10000.00%
                              60            0      0.00%  10000.00%
                              62            0      0.00%  10000.00%
                              64            0      0.00%  10000.00%
                              66            0      0.00%  10000.00%
                              68            0      0.00%  10000.00%
                              70            0      0.00%  10000.00%
                              72            0      0.00%  10000.00%
                              74            0      0.00%  10000.00%
                              76            0      0.00%  10000.00%
                              78            0      0.00%  10000.00%
                              80            0      0.00%  10000.00%
                              82            0      0.00%  10000.00%
                              84            0      0.00%  10000.00%
                              86            0      0.00%  10000.00%
                              88            0      0.00%  10000.00%
                              90            0      0.00%  10000.00%
                              92            0      0.00%  10000.00%
                              94            0      0.00%  10000.00%
                              96            0      0.00%  10000.00%
                              98            0      0.00%  10000.00%
system.cpu0.ISSUE:(null)_delay.max_value           19                      
system.cpu0.ISSUE:(null)_delay.end_dist

system.cpu0.ISSUE:IntAlu_delay.start_dist 
system.cpu0.ISSUE:IntAlu_delay.samples       48934658                      
system.cpu0.ISSUE:IntAlu_delay.min_value            0                      
                               0     43108642   8809.43%   8809.43%
                               2      3052654    623.82%   9433.25%
                               4       991837    202.69%   9635.94%
                               6       437603     89.43%   9725.36%
                               8       297242     60.74%   9786.11%
                              10       173345     35.42%   9821.53%
                              12       146070     29.85%   9851.38%
                              14       302466     61.81%   9913.19%
                              16       128479     26.26%   9939.45%
                              18       129369     26.44%   9965.88%
                              20        94673     19.35%   9985.23%
                              22        71931     14.70%   9999.93%
                              24          347      0.07%  10000.00%
                              26            0      0.00%  10000.00%
                              28            0      0.00%  10000.00%
                              30            0      0.00%  10000.00%
                              32            0      0.00%  10000.00%
                              34            0      0.00%  10000.00%
                              36            0      0.00%  10000.00%
                              38            0      0.00%  10000.00%
                              40            0      0.00%  10000.00%
                              42            0      0.00%  10000.00%
                              44            0      0.00%  10000.00%
                              46            0      0.00%  10000.00%
                              48            0      0.00%  10000.00%
                              50            0      0.00%  10000.00%
                              52            0      0.00%  10000.00%
                              54            0      0.00%  10000.00%
                              56            0      0.00%  10000.00%
                              58            0      0.00%  10000.00%
                              60            0      0.00%  10000.00%
                              62            0      0.00%  10000.00%
                              64            0      0.00%  10000.00%
                              66            0      0.00%  10000.00%
                              68            0      0.00%  10000.00%
                              70            0      0.00%  10000.00%
                              72            0      0.00%  10000.00%
                              74            0      0.00%  10000.00%
                              76            0      0.00%  10000.00%
                              78            0      0.00%  10000.00%
                              80            0      0.00%  10000.00%
                              82            0      0.00%  10000.00%
                              84            0      0.00%  10000.00%
                              86            0      0.00%  10000.00%
                              88            0      0.00%  10000.00%
                              90            0      0.00%  10000.00%
                              92            0      0.00%  10000.00%
                              94            0      0.00%  10000.00%
                              96            0      0.00%  10000.00%
                              98            0      0.00%  10000.00%
system.cpu0.ISSUE:IntAlu_delay.max_value           24                      
system.cpu0.ISSUE:IntAlu_delay.end_dist

system.cpu0.ISSUE:IntMult_delay.start_dist
system.cpu0.ISSUE:IntMult_delay.samples         79211                      
system.cpu0.ISSUE:IntMult_delay.min_value            0                      
                               0        71276   8998.25%   8998.25%
                               2         3952    498.92%   9497.17%
                               4         1889    238.48%   9735.64%
                               6          610     77.01%   9812.65%
                               8          174     21.97%   9834.62%
                              10          186     23.48%   9858.10%
                              12          192     24.24%   9882.34%
                              14          242     30.55%   9912.89%
                              16          200     25.25%   9938.14%
                              18          216     27.27%   9965.41%
                              20          201     25.38%   9990.78%
                              22           73      9.22%  10000.00%
                              24            0      0.00%  10000.00%
                              26            0      0.00%  10000.00%
                              28            0      0.00%  10000.00%
                              30            0      0.00%  10000.00%
                              32            0      0.00%  10000.00%
                              34            0      0.00%  10000.00%
                              36            0      0.00%  10000.00%
                              38            0      0.00%  10000.00%
                              40            0      0.00%  10000.00%
                              42            0      0.00%  10000.00%
                              44            0      0.00%  10000.00%
                              46            0      0.00%  10000.00%
                              48            0      0.00%  10000.00%
                              50            0      0.00%  10000.00%
                              52            0      0.00%  10000.00%
                              54            0      0.00%  10000.00%
                              56            0      0.00%  10000.00%
                              58            0      0.00%  10000.00%
                              60            0      0.00%  10000.00%
                              62            0      0.00%  10000.00%
                              64            0      0.00%  10000.00%
                              66            0      0.00%  10000.00%
                              68            0      0.00%  10000.00%
                              70            0      0.00%  10000.00%
                              72            0      0.00%  10000.00%
                              74            0      0.00%  10000.00%
                              76            0      0.00%  10000.00%
                              78            0      0.00%  10000.00%
                              80            0      0.00%  10000.00%
                              82            0      0.00%  10000.00%
                              84            0      0.00%  10000.00%
                              86            0      0.00%  10000.00%
                              88            0      0.00%  10000.00%
                              90            0      0.00%  10000.00%
                              92            0      0.00%  10000.00%
                              94            0      0.00%  10000.00%
                              96            0      0.00%  10000.00%
                              98            0      0.00%  10000.00%
system.cpu0.ISSUE:IntMult_delay.max_value           22                      
system.cpu0.ISSUE:IntMult_delay.end_dist

system.cpu0.ISSUE:IntDiv_delay.start_dist 
system.cpu0.ISSUE:IntDiv_delay.samples              0                      
system.cpu0.ISSUE:IntDiv_delay.min_value            0                      
                               0            0                      
                               2            0                      
                               4            0                      
                               6            0                      
                               8            0                      
                              10            0                      
                              12            0                      
                              14            0                      
                              16            0                      
                              18            0                      
                              20            0                      
                              22            0                      
                              24            0                      
                              26            0                      
                              28            0                      
                              30            0                      
                              32            0                      
                              34            0                      
                              36            0                      
                              38            0                      
                              40            0                      
                              42            0                      
                              44            0                      
                              46            0                      
                              48            0                      
                              50            0                      
                              52            0                      
                              54            0                      
                              56            0                      
                              58            0                      
                              60            0                      
                              62            0                      
                              64            0                      
                              66            0                      
                              68            0                      
                              70            0                      
                              72            0                      
                              74            0                      
                              76            0                      
                              78            0                      
                              80            0                      
                              82            0                      
                              84            0                      
                              86            0                      
                              88            0                      
                              90            0                      
                              92            0                      
                              94            0                      
                              96            0                      
                              98            0                      
system.cpu0.ISSUE:IntDiv_delay.max_value            0                      
system.cpu0.ISSUE:IntDiv_delay.end_dist

system.cpu0.ISSUE:FloatAdd_delay.start_dist
system.cpu0.ISSUE:FloatAdd_delay.samples         6790                      
system.cpu0.ISSUE:FloatAdd_delay.min_value            0                      
                               0         3534   5204.71%   5204.71%
                               2          133    195.88%   5400.59%
                               4           69    101.62%   5502.21%
                               6          184    270.99%   5773.20%
                               8            6      8.84%   5782.03%
                              10          485    714.29%   6496.32%
                              12          232    341.68%   6838.00%
                              14          788   1160.53%   7998.53%
                              16         1359   2001.47%  10000.00%
                              18            0      0.00%  10000.00%
                              20            0      0.00%  10000.00%
                              22            0      0.00%  10000.00%
                              24            0      0.00%  10000.00%
                              26            0      0.00%  10000.00%
                              28            0      0.00%  10000.00%
                              30            0      0.00%  10000.00%
                              32            0      0.00%  10000.00%
                              34            0      0.00%  10000.00%
                              36            0      0.00%  10000.00%
                              38            0      0.00%  10000.00%
                              40            0      0.00%  10000.00%
                              42            0      0.00%  10000.00%
                              44            0      0.00%  10000.00%
[...]
system.cpu3.kern.ipl_count_30                     493      0.28%     56.62%
system.cpu3.kern.ipl_count_31                   75488     43.38%    100.00%
system.cpu3.kern.ipl_good                      167253                      
system.cpu3.kern.ipl_good_0                     56080     33.53%     33.53%
system.cpu3.kern.ipl_good_22                    41201     24.63%     58.16%
system.cpu3.kern.ipl_good_30                      493      0.29%     58.46%
system.cpu3.kern.ipl_good_31                    69479     41.54%    100.00%
system.cpu3.kern.ipl_ticks                 3415045119                      
system.cpu3.kern.ipl_ticks_0               3321328097     97.26%     97.26%
system.cpu3.kern.ipl_ticks_22                 6891464      0.20%     97.46%
system.cpu3.kern.ipl_ticks_30                  169972      0.00%     97.46%
system.cpu3.kern.ipl_ticks_31                86655586      2.54%    100.00%
system.cpu3.kern.ipl_used                    0.961230                      
system.cpu3.kern.ipl_used_0                  0.987029                      
system.cpu3.kern.ipl_used_22                        1                      
system.cpu3.kern.ipl_used_30                        1                      
system.cpu3.kern.ipl_used_31                 0.920398                      
system.cpu3.kern.mode_good_kernel                 107                      
system.cpu3.kern.mode_good_user                   107                      
system.cpu3.kern.mode_good_idle                     0                      
system.cpu3.kern.mode_good_interrupt                0                      
system.cpu3.kern.mode_switch_kernel             44423                      
system.cpu3.kern.mode_switch_user                 107                      
system.cpu3.kern.mode_switch_idle                   0                      
system.cpu3.kern.mode_switch_interrupt              0                      
system.cpu3.kern.mode_switch_good            0.004806                      
system.cpu3.kern.mode_switch_good_kernel     0.002409                      
system.cpu3.kern.mode_switch_good_user              1                      
system.cpu3.kern.mode_switch_good_idle   <err: div-0>                      
system.cpu3.kern.mode_switch_good_interrupt <err: div-0>                      
system.cpu3.kern.mode_ticks_kernel         3332736993     99.94%     99.94%
system.cpu3.kern.mode_ticks_user              2043337      0.06%    100.00%
system.cpu3.kern.mode_ticks_idle                    0      0.00%    100.00%
system.cpu3.kern.mode_ticks_interrupt               0      0.00%    100.00%
system.cpu3.kern.swap_context                    1534                      
system.cpu3.kern.syscall                           62                      
system.cpu3.kern.syscall_exit                       4      6.45%      6.45%
system.cpu3.kern.syscall_read                       8     12.90%     19.35%
system.cpu3.kern.syscall_getpid                    14     22.58%     41.94%
system.cpu3.kern.syscall_kill                       6      9.68%     51.61%
system.cpu3.kern.syscall_sigprocmask                4      6.45%     58.06%
system.cpu3.kern.syscall_mmap                       3      4.84%     62.90%
system.cpu3.kern.syscall_munmap                     4      6.45%     69.35%
system.cpu3.kern.syscall_mprotect                   3      4.84%     74.19%
system.cpu3.kern.syscall_poll                      11     17.74%     91.94%
system.cpu3.kern.syscall_sigreturn                  5      8.06%    100.00%
system.cpu3.numCycles                      3414798366                      
system.cpu3inst_class_dist.start_dist
                   All ops ready            0      0.00%           
                One op not ready            0      0.00%           
           None rdy, mult chains            0      0.00%           
           None rdy, one chained            0      0.00%           
        None rdy, all self-timed            0      0.00%           
system.cpu3inst_class_dist.end_dist
system.htbus.addr_idle_cycles              3414066076                      
system.htbus.addr_idle_fraction              0.999704                      
system.htbus.addr_queued                    27.711391                      
system.htbus.addr_queued_cycles               3851052                      
system.htbus.addr_requests                     138970                      
system.htbus.bus_blocked                            0                      
system.htbus.bus_blocked_cycles                     0                      
system.htbus.bus_blocked_fraction                   0                      
system.htbus.data_idle_cycles              3413965232                      
system.htbus.data_idle_fraction              0.999675                      
system.htbus.data_queued                            1                      
system.htbus.data_queued_cycles                 10112                      
system.htbus.data_requests                      10112                      
system.htbus.null_grants                            0                      
system.kern.fnCalls                                 0                      
system.l2.avg_blocked_cycles_no_mshrs    <err: div-0>                      
system.l2.avg_blocked_cycles_no_targets  <err: div-0>                      
system.l2.avg_refs                           2.311956                      
system.l2.blocked_no_mshrs                          0                      
system.l2.blocked_no_targets                        0                      
system.l2.blocked_cycles_no_mshrs                   0                      
system.l2.blocked_cycles_no_targets                 0                      
system.l2.cache_copies                              0                      
system.l2.demand_accesses                     2917185                      
system.l2.demand_avg_miss_latency           65.399325                      
system.l2.demand_avg_mshr_miss_latency      35.468544                      
system.l2.demand_hits                         1868102                      
system.l2.demand_miss_latency                68609320                      
system.l2.demand_miss_rate                   0.359622                      
system.l2.demand_misses                       1049083                      
system.l2.demand_mshr_hits                          9                      
system.l2.demand_mshr_miss_latency           37209127                      
system.l2.demand_mshr_miss_rate              0.359619                      
system.l2.demand_mshr_misses                  1049074                      
system.l2.fast_writes                               0                      
system.l2.mshr_cap_events                           0                      
system.l2.no_allocate_misses                        0                      
system.l2.overall_accesses                    3594038                      
system.l2.overall_avg_miss_latency          65.358269                      
system.l2.overall_avg_mshr_miss_latency     35.468544                      
system.l2.overall_avg_mshr_uncacheable_latency    86.565486                      
system.l2.overall_hits                        2544296                      
system.l2.overall_miss_latency               68609320                      
system.l2.overall_miss_rate                  0.292079                      
system.l2.overall_misses                      1049742                      
system.l2.overall_mshr_hits                         9                      
system.l2.overall_mshr_miss_latency          37209127                      
system.l2.overall_mshr_miss_rate             0.291893                      
system.l2.overall_mshr_misses                 1049074                      
system.l2.overall_mshr_uncacheable_latency      7074824                      
system.l2.overall_mshr_uncacheable_misses        81728                      
system.l2.prefetcher.num_hwpf_already_in_cache            0                      
system.l2.prefetcher.num_hwpf_already_in_mshr            0                      
system.l2.prefetcher.num_hwpf_already_in_prefetcher            0                      
system.l2.prefetcher.num_hwpf_evicted               0                      
system.l2.prefetcher.num_hwpf_identified            0                      
system.l2.prefetcher.num_hwpf_issued                0                      
system.l2.prefetcher.num_hwpf_removed_MSHR_hit            0                      
system.l2.prefetcher.num_hwpf_span_page             0                      
system.l2.prefetcher.num_hwpf_squashed_from_miss            0                      
system.l2.readEx_accesses                      406052                      
system.l2.readEx_avg_miss_latency           62.396833                      
system.l2.readEx_avg_mshr_miss_latency      32.651542                      
system.l2.readEx_hits                          247373                      
system.l2.readEx_miss_latency                 9901067                      
system.l2.readEx_miss_rate                   0.390785                      
system.l2.readEx_misses                        158679                      
system.l2.readEx_mshr_miss_latency            5181114                      
system.l2.readEx_mshr_miss_rate              0.390785                      
system.l2.readEx_mshr_misses                   158679                      
system.l2.read_accesses                       2917185                      
system.l2.read_avg_miss_latency             65.399325                      
system.l2.read_avg_mshr_miss_latency        35.468544                      
system.l2.read_avg_mshr_uncacheable_latency   148.048079                      
system.l2.read_hits                           1868102                      
system.l2.read_miss_latency                  68609320                      
system.l2.read_miss_rate                     0.359622                      
system.l2.read_misses                         1049083                      
system.l2.read_mshr_hits                            9                      
system.l2.read_mshr_miss_latency             37209127                      
system.l2.read_mshr_miss_rate                0.359619                      
system.l2.read_mshr_misses                    1049074                      
system.l2.read_mshr_uncacheable                 11918                      
system.l2.read_mshr_uncacheable_latency       1764437                      
system.l2.replacements                        1173255                      
system.l2.sampled_refs                        1205636                      
system.l2.soft_prefetch_mshr_full                   0                      
system.l2.tagsinuse                      31712.523509                      
system.l2.total_refs                          2787377                      
system.l2.warmup_cycle                        3560738                      
system.l2.write_avg_mshr_uncacheable_latency    76.069145                      
system.l2.write_mshr_uncacheable                69810                      
system.l2.write_mshr_uncacheable_latency      5310387                      
system.l2.writeback_accesses                   676853                      
system.l2.writeback_hits                       676194                      
system.l2.writeback_miss_rate                0.000974                      
system.l2.writeback_misses                        659                      
system.l2.writeback_mshr_miss_rate           0.000974                      
system.l2.writeback_mshr_misses                   659                      
system.l2.writebacks                           161537                      
system.l2bus.addr_idle_cycles              3410621655                      
system.l2bus.addr_idle_fraction              0.998696                      
system.l2bus.addr_queued                     4.096481                      
system.l2bus.addr_queued_cycles              18208922                      
system.l2bus.addr_requests                    4445016                      
system.l2bus.bus_blocked                          406                      
system.l2bus.bus_blocked_cycles                185943                      
system.l2bus.bus_blocked_fraction            0.000054                      
system.l2bus.data_idle_cycles              3410848136                      
system.l2bus.data_idle_fraction              0.998762                      
system.l2bus.data_queued                     1.026097                      
system.l2bus.data_queued_cycles               3572193                      
system.l2bus.data_requests                    3481339                      
system.l2bus.null_grants                        33202                      
system.membus.addr_idle_cycles             3413444614                      
system.membus.addr_idle_fraction             0.999522                      
system.membus.addr_queued                   27.484241                      
system.membus.addr_queued_cycles             44840951                      
system.membus.addr_requests                   1631515                      
system.membus.bus_blocked                           0                      
system.membus.bus_blocked_cycles                    0                      
system.membus.bus_blocked_fraction                  0                      
system.membus.data_idle_cycles             3409294109                      
system.membus.data_idle_fraction             0.998307                      
system.membus.data_queued                    2.251667                      
system.membus.data_queued_cycles              2746824                      
system.membus.data_requests                   1219907                      
system.membus.null_grants                           0                      
system.pcibus.addr_idle_cycles             3413875536                      
system.pcibus.addr_idle_fraction             0.999648                      
system.pcibus.addr_queued                  328.901490                      
system.pcibus.addr_queued_cycles             45707440                      
system.pcibus.addr_requests                    138970                      
system.pcibus.bus_blocked                        3432                      
system.pcibus.bus_blocked_cycles                68637                      
system.pcibus.bus_blocked_fraction           0.000020                      
system.pcibus.data_idle_cycles             3413284350                      
system.pcibus.data_idle_fraction             0.999475                      
system.pcibus.data_queued                    2.126780                      
system.pcibus.data_queued_cycles                21506                      
system.pcibus.data_requests                     10112                      
system.pcibus.null_grants                           0                      
system.ram.accesses                           1425081                      
system.ram.bytes_requested                          0                      
system.ram.bytes_sent                               0                      
system.ram.compressed_responses                     0                      
system.tsunami.etherdev0.coalescedRxDesc <err: div-0>                      
system.tsunami.etherdev0.coalescedRxIdle <err: div-0>                      
system.tsunami.etherdev0.coalescedRxOk   <err: div-0>                      
system.tsunami.etherdev0.coalescedRxOrn  <err: div-0>                      
system.tsunami.etherdev0.coalescedSwi    <err: div-0>                      
system.tsunami.etherdev0.coalescedTotal      no value                      
system.tsunami.etherdev0.coalescedTxDesc <err: div-0>                      
system.tsunami.etherdev0.coalescedTxIdle <err: div-0>                      
system.tsunami.etherdev0.coalescedTxOk   <err: div-0>                      
system.tsunami.etherdev0.descDMAReads               0                      
system.tsunami.etherdev0.descDMAWrites              0                      
system.tsunami.etherdev0.descDmaReadBytes            0                      
system.tsunami.etherdev0.descDmaWriteBytes            0                      
system.tsunami.etherdev0.dma.avg_large_transaction_latency <err: div-0>                      
system.tsunami.etherdev0.dma.avg_small_transaction_latency <err: div-0>                      
system.tsunami.etherdev0.dma.avg_transaction_latency <err: div-0>                      
system.tsunami.etherdev0.dma.bytes_transfered            0                      
system.tsunami.etherdev0.dma.large_transaction_latency            0                      
system.tsunami.etherdev0.dma.large_transactions            0                      
system.tsunami.etherdev0.dma.packets_sent            0                      
system.tsunami.etherdev0.dma.requests               0                      
system.tsunami.etherdev0.dma.round_trip_latency <err: div-0>                      
system.tsunami.etherdev0.dma.small_transaction_latency            0                      
system.tsunami.etherdev0.dma.small_transactions            0                      
system.tsunami.etherdev0.dma.total_cycle_latency            0                      
system.tsunami.etherdev0.dma.transaction_latency            0                      
system.tsunami.etherdev0.droppedPackets             0                      
system.tsunami.etherdev0.postedInterrupts            0                      
system.tsunami.etherdev0.postedRxDesc               0                      
system.tsunami.etherdev0.postedRxIdle               0                      
system.tsunami.etherdev0.postedRxOk                 0                      
system.tsunami.etherdev0.postedRxOrn                0                      
system.tsunami.etherdev0.postedSwi                  0                      
system.tsunami.etherdev0.postedTxDesc               0                      
system.tsunami.etherdev0.postedTxIdle               0                      
system.tsunami.etherdev0.postedTxOk                 0                      
system.tsunami.etherdev0.totalRxDesc                0                      
system.tsunami.etherdev0.totalRxIdle                0                      
system.tsunami.etherdev0.totalRxOk                  0                      
system.tsunami.etherdev0.totalRxOrn                 0                      
system.tsunami.etherdev0.totalSwi                   0                      
system.tsunami.etherdev0.totalTxDesc                0                      
system.tsunami.etherdev0.totalTxIdle                0                      
system.tsunami.etherdev0.totalTxOk                  0                      
system.tsunami.ide.dma.avg_large_transaction_latency  1870.150943                      
system.tsunami.ide.dma.avg_small_transaction_latency   164.309091                      
system.tsunami.ide.dma.avg_transaction_latency  1369.770667                      
system.tsunami.ide.dma.bytes_transfered       3527728                      
system.tsunami.ide.dma.large_transaction_latency       991180                      
system.tsunami.ide.dma.large_transactions          530                      
system.tsunami.ide.dma.packets_sent             55132                      
system.tsunami.ide.dma.requests                   750                      
system.tsunami.ide.dma.round_trip_latency  1062.210150                      
system.tsunami.ide.dma.small_transaction_latency        36148                      
system.tsunami.ide.dma.small_transactions          220                      
system.tsunami.ide.dma.total_cycle_latency     58561770                      
system.tsunami.ide.dma.transaction_latency      1027328                      

---------- End Simulation Statistics   ----------
