
---------- Begin Simulation Statistics ----------
host_inst_rate                                   3172                      
host_mem_usage                                 193048                      
host_seconds                                 48984.67                      
host_tick_rate                                 252450                      
sim_freq                                    500000000                      
sim_insts                                   155366561                      
sim_seconds                                 24.732400                      
sim_ticks                                 12366200223                      
system.cpu0.COM:IPB                          4.515891                      
system.cpu0.COM:IPC                          0.012564                      
system.cpu0.COM:branches                     34404409                      
system.cpu0.COM:bw_lim_avg               <err: div-0>                      
system.cpu0.COM:bw_lim_events                       0                      
system.cpu0.COM:bw_lim_rate                    0.0000                      
system.cpu0.COM:bw_lim_stdev_0_mean      <err: div-0>                      
system.cpu0.COM:bw_lim_stdev_0_stdev     <err: div-0>                      
**Ignore: system.cpu0.COM:bw_lim_stdev_0_TOT       0.0000                      
system.cpu0.COM:bw_limited                          0                      
system.cpu0.COM:committed_per_cycle.start_dist
system.cpu0.COM:committed_per_cycle.samples     51213575                      
system.cpu0.COM:committed_per_cycle.min_value            0                      
                               0       660409    128.95%           
                               1     10986650   2145.26%           
                               2      4861836    949.33%           
                               3      3948836    771.05%           
                               4     30755844   6005.41%           
system.cpu0.COM:committed_per_cycle.max_value            4                      
system.cpu0.COM:committed_per_cycle.end_dist

system.cpu0.COM:count                       155366561                      
system.cpu0.COM:loads                        18612571                      
system.cpu0.COM:membars                        490791                      
system.cpu0.COM:refs                         30485424                      
system.cpu0.COM:stores                       11872853                      
system.cpu0.COM:swp_count                      213645                      
system.cpu0.DDQ:count                      6540981936                      
system.cpu0.DDQ:rate                                1                      
system.cpu0.DIS:chain_creation.start_dist
     Inst has no outstanding IDEPS            0      0.00%           
      IDEP chain reached max depth            0      0.00%           
                    Inst is a load            0      0.00%           
  Chain has multiple chained IDEPS            0      0.00%           
system.cpu0.DIS:chain_creation.end_dist
system.cpu0.DIS:chain_head_frac                     0                      
system.cpu0.DIS:chain_heads                         0                      
system.cpu0.DIS:chains_insuf                        0                      
system.cpu0.DIS:chains_insuf_rate                   0                      
system.cpu0.DIS:count                       186133027                      
system.cpu0.DIS:insufficient_chains                 0                      
system.cpu0.DIS:mod_n_stall_avg_free     <err: div-0>                      
system.cpu0.DIS:mod_n_stall_frac                    0                      
system.cpu0.DIS:mod_n_stall_free                    0                      
system.cpu0.DIS:mod_n_stalls                        0                      
system.cpu0.DIS:one_rdy_insts                       0                      
system.cpu0.DIS:one_rdy_ratio            <err: div-0>                      
system.cpu0.DIS:op_count                    225511817                      
system.cpu0.DIS:op_rate                      0.018236                      
system.cpu0.DIS:rate                         0.015052                      
system.cpu0.DIS:second_choice_clust                 0                      
system.cpu0.DIS:second_choice_stall                 0                      
system.cpu0.DIS:serialize_stall_cycles       15364605                      
system.cpu0.DIS:serializing_insts              608325                      
system.cpu0.DIS:two_input_insts                     0                      
system.cpu0.DIS:two_input_ratio                     0                      
system.cpu0.FETCH:branch_count               69926818                      
system.cpu0.FETCH:branch_rate                0.005655                      
system.cpu0.FETCH:chance_pct                        1                      
system.cpu0.FETCH:chances                    77541511                      
system.cpu0.FETCH:choice                     77541511                      
system.cpu0.FETCH:count                     289375779                      
system.cpu0.FETCH:decisions                  77541511                      
system.cpu0.FETCH:idle_cycles             12288658713                      
system.cpu0.FETCH:idle_icache_blocked_cycles            0                      
system.cpu0.FETCH:idle_rate                     99.37                      
system.cpu0.FETCH:prio_changes                      0                      
system.cpu0.FETCH:rate                       0.023401                      
system.cpu0.FETCH:rate_dist.start_dist    
system.cpu0.FETCH:rate_dist.samples          77541511                      
system.cpu0.FETCH:rate_dist.min_value               0                      
                               0       184306     23.77%           
                               1      2005841    258.68%           
                               2      1596217    205.85%           
                               3     10843084   1398.36%           
                               4     62912063   8113.34%           
system.cpu0.FETCH:rate_dist.max_value               4                      
system.cpu0.FETCH:rate_dist.end_dist

system.cpu0.FETCH:rate_dist_0.start_dist  
system.cpu0.FETCH:rate_dist_0.samples        77541511                      
system.cpu0.FETCH:rate_dist_0.min_value             0                      
                               0       184306     23.77%           
                               1      2005841    258.68%           
                               2      1596217    205.85%           
                               3     10843084   1398.36%           
                               4     62912063   8113.34%           
system.cpu0.FETCH:rate_dist_0.max_value             4                      
system.cpu0.FETCH:rate_dist_0.end_dist

system.cpu0.IFQ:count                      1896329276                      
system.cpu0.IFQ:full_count                   44666838                      
system.cpu0.IFQ:full_rate                    0.361201                      
system.cpu0.IFQ:latency                     10.188032                      
system.cpu0.IFQ:occupancy                    0.153348                      
system.cpu0.IFQ:qfull_iq_occ               1595213647                      
system.cpu0.IFQ:qfull_iq_occ_dist_0.start_dist
system.cpu0.IFQ:qfull_iq_occ_dist_0.samples     34299520                      
system.cpu0.IFQ:qfull_iq_occ_dist_0.min_value            0                      
                               0      7839037   2285.47%           
                              10       772924    225.35%           
                              20       716785    208.98%           
                              30       731257    213.20%           
                              40       953617    278.03%           
                              50       731368    213.23%           
                              60     22554532   6575.76%           
system.cpu0.IFQ:qfull_iq_occ_dist_0.max_value           64                      
system.cpu0.IFQ:qfull_iq_occ_dist_0.end_dist

system.cpu0.IFQ:qfull_rob_occ              2645695106                      
system.cpu0.IFQ:qfull_rob_occ_dist_0.start_dist
system.cpu0.IFQ:qfull_rob_occ_dist_0.samples     34299520                      
system.cpu0.IFQ:qfull_rob_occ_dist_0.min_value            1                      
                               0      2372491    691.70%           
                              10      2370477    691.11%           
                              20      1451296    423.12%           
                              30       507171    147.87%           
                              40       278901     81.31%           
                              50       207670     60.55%           
                              60      5482659   1598.47%           
                              70      1528256    445.56%           
                              80       676250    197.16%           
                              90     14252385   4155.27%           
                             100      1210850    353.02%           
                             110      1896004    552.78%           
                             120      2065110    602.08%           
                             130            0      0.00%           
system.cpu0.IFQ:qfull_rob_occ_dist_0.max_value          128                      
system.cpu0.IFQ:qfull_rob_occ_dist_0.end_dist

system.cpu0.IQ:cap_events                           0                      
system.cpu0.IQ:cap_inst                             0                      
system.cpu0.IQ:residence:(null).start_dist
system.cpu0.IQ:residence:(null).samples         10118                      
system.cpu0.IQ:residence:(null).min_value            1                      
                               0         9020   8914.81%   8914.81%
                               2          697    688.87%   9603.68%
                               4          205    202.61%   9806.29%
                               6           31     30.64%   9836.92%
                               8          154    152.20%   9989.13%
                              10            4      3.95%   9993.08%
                              12            4      3.95%   9997.03%
                              14            0      0.00%   9997.03%
                              16            2      1.98%   9999.01%
                              18            1      0.99%  10000.00%
                              20            0      0.00%  10000.00%
                              22            0      0.00%  10000.00%
                              24            0      0.00%  10000.00%
                              26            0      0.00%  10000.00%
                              28            0      0.00%  10000.00%
                              30            0      0.00%  10000.00%
                              32            0      0.00%  10000.00%
                              34            0      0.00%  10000.00%
                              36            0      0.00%  10000.00%
                              38            0      0.00%  10000.00%
                              40            0      0.00%  10000.00%
                              42            0      0.00%  10000.00%
                              44            0      0.00%  10000.00%
                              46            0      0.00%  10000.00%
                              48            0      0.00%  10000.00%
                              50            0      0.00%  10000.00%
                              52            0      0.00%  10000.00%
                              54            0      0.00%  10000.00%
                              56            0      0.00%  10000.00%
                              58            0      0.00%  10000.00%
                              60            0      0.00%  10000.00%
                              62            0      0.00%  10000.00%
                              64            0      0.00%  10000.00%
                              66            0      0.00%  10000.00%
                              68            0      0.00%  10000.00%
                              70            0      0.00%  10000.00%
                              72            0      0.00%  10000.00%
                              74            0      0.00%  10000.00%
                              76            0      0.00%  10000.00%
                              78            0      0.00%  10000.00%
                              80            0      0.00%  10000.00%
                              82            0      0.00%  10000.00%
                              84            0      0.00%  10000.00%
                              86            0      0.00%  10000.00%
                              88            0      0.00%  10000.00%
                              90            0      0.00%  10000.00%
                              92            0      0.00%  10000.00%
                              94            0      0.00%  10000.00%
                              96            0      0.00%  10000.00%
                              98            0      0.00%  10000.00%
system.cpu0.IQ:residence:(null).max_value           18                      
system.cpu0.IQ:residence:(null).end_dist

system.cpu0.IQ:residence:IntAlu.start_dist
system.cpu0.IQ:residence:IntAlu.samples     131528842                      
system.cpu0.IQ:residence:IntAlu.min_value            1                      
                               0     39047931   2968.77%   2968.77%
                               2     40216611   3057.63%   6026.40%
                               4      8268592    628.65%   6655.05%
                               6      5949250    452.32%   7107.37%
                               8      4373484    332.51%   7439.88%
                              10      2853326    216.94%   7656.81%
                              12      3653381    277.76%   7934.58%
                              14      3906674    297.02%   8231.60%
                              16      4281828    325.54%   8557.14%
                              18      2630486    199.99%   8757.13%
                              20      2585746    196.59%   8953.73%
                              22      1728559    131.42%   9085.15%
                              24      1067445     81.16%   9166.30%
                              26       746825     56.78%   9223.08%
                              28       703955     53.52%   9276.60%
                              30       747730     56.85%   9333.45%
                              32       659956     50.18%   9383.63%
                              34       415793     31.61%   9415.24%
                              36       487299     37.05%   9452.29%
                              38       450885     34.28%   9486.57%
                              40       439919     33.45%   9520.02%
                              42       328827     25.00%   9545.02%
                              44       355830     27.05%   9572.07%
                              46       264819     20.13%   9592.20%
                              48       210241     15.98%   9608.19%
                              50       208774     15.87%   9624.06%
                              52       218145     16.59%   9640.65%
                              54       228352     17.36%   9658.01%
                              56        89944      6.84%   9664.85%
                              58       124442      9.46%   9674.31%
                              60       101493      7.72%   9682.02%
                              62       185822     14.13%   9696.15%
                              64        97630      7.42%   9703.57%
                              66        84148      6.40%   9709.97%
                              68        94775      7.21%   9717.18%
                              70        59338      4.51%   9721.69%
                              72        80562      6.13%   9727.81%
                              74        68885      5.24%   9733.05%
                              76        93054      7.07%   9740.13%
                              78       110612      8.41%   9748.54%
                              80        53878      4.10%   9752.63%
                              82        54324      4.13%   9756.76%
                              84        55281      4.20%   9760.97%
                              86        58875      4.48%   9765.44%
                              88        72353      5.50%   9770.94%
                              90        78976      6.00%   9776.95%
                              92        41369      3.15%   9780.09%
                              94        34652      2.63%   9782.73%
                              96        43041      3.27%   9786.00%
                              98        67825      5.16%   9791.16%
system.cpu0.IQ:residence:IntAlu.overflows      2746900                      
system.cpu0.IQ:residence:IntAlu.max_value        21443                      
system.cpu0.IQ:residence:IntAlu.end_dist

system.cpu0.IQ:residence:IntMult.start_dist
system.cpu0.IQ:residence:IntMult.samples        96042                      
system.cpu0.IQ:residence:IntMult.min_value            1                      
                               0         1797    187.11%    187.11%
                               2          899     93.60%    280.71%
                               4         7844    816.73%   1097.44%
                               6         4450    463.34%   1560.78%
                               8         6150    640.34%   2201.12%
                              10         4463    464.69%   2665.81%
                              12         2272    236.56%   2902.38%
                              14         1765    183.77%   3086.15%
                              16        26799   2790.34%   5876.49%
                              18         1855    193.14%   6069.64%
                              20         1415    147.33%   6216.97%
                              22         5225    544.03%   6761.00%
                              24          800     83.30%   6844.30%
                              26          398     41.44%   6885.74%
                              28          134     13.95%   6899.69%
                              30         1577    164.20%   7063.89%
                              32         1687    175.65%   7239.54%
                              34         2113    220.01%   7459.55%
                              36         2393    249.16%   7708.71%
                              38         2311    240.62%   7949.33%
                              40         9416    980.40%   8929.74%
                              42         1177    122.55%   9052.29%
                              44          108     11.25%   9063.53%
                              46          101     10.52%   9074.05%
                              48          187     19.47%   9093.52%
                              50          167     17.39%   9110.91%
                              52          377     39.25%   9150.16%
                              54          235     24.47%   9174.63%
                              56          327     34.05%   9208.68%
                              58           72      7.50%   9216.18%
                              60           26      2.71%   9218.88%
                              62           23      2.39%   9221.28%
                              64           23      2.39%   9223.67%
                              66           52      5.41%   9229.09%
                              68           59      6.14%   9235.23%
                              70          690     71.84%   9307.07%
                              72          270     28.11%   9335.19%
                              74          638     66.43%   9401.62%
                              76           88      9.16%   9410.78%
                              78           36      3.75%   9414.53%
                              80          102     10.62%   9425.15%
                              82           36      3.75%   9428.90%
                              84           33      3.44%   9432.33%
                              86           11      1.15%   9433.48%
                              88           41      4.27%   9437.75%
                              90           21      2.19%   9439.93%
                              92            3      0.31%   9440.24%
                              94           19      1.98%   9442.22%
                              96            2      0.21%   9442.43%
                              98            8      0.83%   9443.26%
system.cpu0.IQ:residence:IntMult.overflows         5347                      
system.cpu0.IQ:residence:IntMult.max_value          842                      
system.cpu0.IQ:residence:IntMult.end_dist

system.cpu0.IQ:residence:IntDiv.start_dist
system.cpu0.IQ:residence:IntDiv.samples             0                      
system.cpu0.IQ:residence:IntDiv.min_value            0                      
                               0            0                      
                               2            0                      
                               4            0                      
                               6            0                      
                               8            0                      
                              10            0                      
                              12            0                      
                              14            0                      
                              16            0                      
                              18            0                      
                              20            0                      
                              22            0                      
                              24            0                      
                              26            0                      
                              28            0                      
                              30            0                      
                              32            0                      
                              34            0                      
                              36            0                      
                              38            0                      
                              40            0                      
                              42            0                      
                              44            0                      
                              46            0                      
                              48            0                      
                              50            0                      
                              52            0                      
                              54            0                      
                              56            0                      
                              58            0                      
                              60            0                      
                              62            0                      
                              64            0                      
                              66            0                      
                              68            0                      
                              70            0                      
                              72            0                      
                              74            0                      
                              76            0                      
                              78            0                      
                              80            0                      
                              82            0                      
                              84            0                      
                              86            0                      
                              88            0                      
                              90            0                      
                              92            0                      
                              94            0                      
                              96            0                      
                              98            0                      
system.cpu0.IQ:residence:IntDiv.max_value            0                      
system.cpu0.IQ:residence:IntDiv.end_dist

system.cpu0.IQ:residence:FloatAdd.start_dist
system.cpu0.IQ:residence:FloatAdd.samples         9751                      
system.cpu0.IQ:residence:FloatAdd.min_value            1                      
                               0           92     94.35%     94.35%
                               2          176    180.49%    274.84%
                               4          135    138.45%    413.29%
                               6         2487   2550.51%   2963.80%
                               8           28     28.72%   2992.51%
                              10          334    342.53%   3335.04%
                              12          868    890.17%   4225.21%
                              14          382    391.75%   4616.96%
                              16         2440   2502.31%   7119.27%
                              18            4      4.10%   7123.37%
                              20            1      1.03%   7124.40%
                              22            0      0.00%   7124.40%
                              24            0      0.00%   7124.40%
                              26            0      0.00%   7124.40%
                              28            0      0.00%   7124.40%
                              30            2      2.05%   7126.45%
                              32            2      2.05%   7128.50%
                              34           45     46.15%   7174.65%
                              36         1881   1929.03%   9103.68%
                              38          867    889.14%   9992.82%
                              40            0      0.00%   9992.82%
                              42            1      1.03%   9993.85%
                              44            0      0.00%   9993.85%
                              46            0      0.00%   9993.85%
                              48            0      0.00%   9993.85%
                              50            0      0.00%   9993.85%
                              52            0      0.00%   9993.85%
                              54            0      0.00%   9993.85%
                              56            0      0.00%   9993.85%
                              58            0      0.00%   9993.85%
                              60            0      0.00%   9993.85%
                              62            0      0.00%   9993.85%
                              64            0      0.00%   9993.85%
                              66            0      0.00%   9993.85%
                              68            0      0.00%   9993.85%
                              70            0      0.00%   9993.85%
                              72            0      0.00%   9993.85%
                              74            0      0.00%   9993.85%
                              76            0      0.00%   9993.85%
                              78            2      2.05%   9995.90%
                              80            0      0.00%   9995.90%
                              82            0      0.00%   9995.90%
                              84            0      0.00%   9995.90%
                              86            0      0.00%   9995.90%
                              88            4      4.10%  10000.00%
                              90            0      0.00%  10000.00%
                              92            0      0.00%  10000.00%
                              94            0      0.00%  10000.00%
                              96            0      0.00%  10000.00%
                              98            0      0.00%  10000.00%
system.cpu0.IQ:residence:FloatAdd.max_value           88                      
system.cpu0.IQ:residence:FloatAdd.end_dist

system.cpu0.IQ:residence:FloatCmp.start_dist
system.cpu0.IQ:residence:FloatCmp.samples            0                      
system.cpu0.IQ:residence:FloatCmp.min_value            0                      
                               0            0                      
                               2            0                      
                               4            0                      
                               6            0                      
                               8            0                      
                              10            0                      
                              12            0                      
                              14            0                      
                              16            0                      
                              18            0                      
                              20            0                      
                              22            0                      
                              24            0                      
                              26            0                      
                              28            0                      
                              30            0                      
                              32            0                      
                              34            0                      
                              36            0                      
                              38            0                      
                              40            0                      
                              42            0                      
                              44            0                      
                              46            0                      
                              48            0                      
                              50            0                      
                              52            0                      
                              54            0                      
                              56            0                      
                              58            0                      
                              60            0                      
                              62            0                      
                              64            0                      
                              66            0                      
                              68            0                      
                              70            0                      
                              72            0                      
                              74            0                      
                              76            0                      
                              78            0                      
                              80            0                      
                              82            0                      
                              84            0                      
                              86            0                      
                              88            0                      
                              90            0                      
                              92            0                      
                              94            0                      
                              96            0                      
                              98            0                      
system.cpu0.IQ:residence:FloatCmp.max_value            0                      
system.cpu0.IQ:residence:FloatCmp.end_dist

system.cpu0.IQ:residence:FloatCvt.start_dist
system.cpu0.IQ:residence:FloatCvt.samples            0                      
system.cpu0.IQ:residence:FloatCvt.min_value            0                      
                               0            0                      
                               2            0                      
                               4            0                      
                               6            0                      
                               8            0                      
                              10            0                      
                              12            0                      
                              14            0                      
                              16            0                      
                              18            0                      
                              20            0                      
                              22            0                      
                              24            0                      
                              26            0                      
                              28            0                      
                              30            0                      
                              32            0                      
                              34            0                      
                              36            0                      
                              38            0                      
                              40            0                      
                              42            0                      
                              44            0                      
                              46            0                      
                              48            0                      
                              50            0                      
                              52            0                      
                              54            0                      
                              56            0                      
                              58            0                      
                              60            0                      
                              62            0                      
                              64            0                      
                              66            0                      
                              68            0                      
                              70            0                      
                              72            0                      
                              74            0                      
                              76            0                      
                              78            0                      
                              80            0                      
                              82            0                      
                              84            0                      
                              86            0                      
                              88            0                      
                              90            0                      
                              92            0                      
                              94            0                      
                              96            0                      
                              98            0                      
system.cpu0.IQ:residence:FloatCvt.max_value            0                      
system.cpu0.IQ:residence:FloatCvt.end_dist

system.cpu0.IQ:residence:FloatMult.start_dist
system.cpu0.IQ:residence:FloatMult.samples            0                      
system.cpu0.IQ:residence:FloatMult.min_value            0                      
                               0            0                      
                               2            0                      
                               4            0                      
                               6            0                      
                               8            0                      
                              10            0                      
                              12            0                      
                              14            0                      
                              16            0                      
                              18            0                      
                              20            0                      
                              22            0                      
                              24            0                      
                              26            0                      
                              28            0                      
                              30            0                      
                              32            0                      
                              34            0                      
                              36            0                      
                              38            0                      
                              40            0                      
                              42            0                      
                              44            0                      
                              46            0                      
                              48            0                      
                              50            0                      
                              52            0                      
                              54            0                      
                              56            0                      
                              58            0                      
                              60            0                      
                              62            0                      
                              64            0                      
                              66            0                      
                              68            0                      
                              70            0                      
                              72            0                      
                              74            0                      
                              76            0                      
                              78            0                      
                              80            0                      
                              82            0                      
                              84            0                      
                              86            0                      
                              88            0                      
                              90            0                      
                              92            0                      
                              94            0                      
                              96            0                      
                              98            0                      
system.cpu0.IQ:residence:FloatMult.max_value            0                      
system.cpu0.IQ:residence:FloatMult.end_dist

system.cpu0.IQ:residence:FloatDiv.start_dist
system.cpu0.IQ:residence:FloatDiv.samples           60                      
system.cpu0.IQ:residence:FloatDiv.min_value            6                      
                               0            0      0.00%      0.00%
                               2            0      0.00%      0.00%
                               4            0      0.00%      0.00%
                               6           59   9833.33%   9833.33%
                               8            0      0.00%   9833.33%
                              10            0      0.00%   9833.33%
                              12            0      0.00%   9833.33%
                              14            0      0.00%   9833.33%
                              16            0      0.00%   9833.33%
                              18            0      0.00%   9833.33%
                              20            0      0.00%   9833.33%
                              22            0      0.00%   9833.33%
                              24            0      0.00%   9833.33%
                              26            0      0.00%   9833.33%
                              28            0      0.00%   9833.33%
                              30            0      0.00%   9833.33%
                              32            1    166.67%  10000.00%
                              34            0      0.00%  10000.00%
                              36            0      0.00%  10000.00%
                              38            0      0.00%  10000.00%
                              40            0      0.00%  10000.00%
                              42            0      0.00%  10000.00%
                              44            0      0.00%  10000.00%
                              46            0      0.00%  10000.00%
                              48            0      0.00%  10000.00%
                              50            0      0.00%  10000.00%
                              52            0      0.00%  10000.00%
                              54            0      0.00%  10000.00%
                              56            0      0.00%  10000.00%
                              58            0      0.00%  10000.00%
                              60            0      0.00%  10000.00%
                              62            0      0.00%  10000.00%
                              64            0      0.00%  10000.00%
                              66            0      0.00%  10000.00%
                              68            0      0.00%  10000.00%
                              70            0      0.00%  10000.00%
                              72            0      0.00%  10000.00%
                              74            0      0.00%  10000.00%
                              76            0      0.00%  10000.00%
                              78            0      0.00%  10000.00%
                              80            0      0.00%  10000.00%
                              82            0      0.00%  10000.00%
                              84            0      0.00%  10000.00%
                              86            0      0.00%  10000.00%
                              88            0      0.00%  10000.00%
                              90            0      0.00%  10000.00%
                              92            0      0.00%  10000.00%
                              94            0      0.00%  10000.00%
                              96            0      0.00%  10000.00%
                              98            0      0.00%  10000.00%
system.cpu0.IQ:residence:FloatDiv.max_value           32                      
system.cpu0.IQ:residence:FloatDiv.end_dist

system.cpu0.IQ:residence:FloatSqrt.start_dist
system.cpu0.IQ:residence:FloatSqrt.samples            0                      
system.cpu0.IQ:residence:FloatSqrt.min_value            0                      
                               0            0                      
                               2            0                      
                               4            0                      
                               6            0                      
                               8            0                      
                              10            0                      
                              12            0                      
                              14            0                      
                              16            0                      
                              18            0                      
                              20            0                      
                              22            0                      
                              24            0                      
                              26            0                      
                              28            0                      
                              30            0                      
                              32            0                      
                              34            0                      
                              36            0                      
                              38            0                      
                              40            0                      
                              42            0                      
                              44            0                      
                              46            0                      
                              48            0                      
                              50            0                      
                              52            0                      
                              54            0                      
                              56            0                      
                              58            0                      
                              60            0                      
                              62            0                      
                              64            0                      
                              66            0                      
                              68            0                      
                              70            0                      
                              72            0                      
                              74            0                      
                              76            0                      
                              78            0                      
                              80            0                      
                              82            0                      
                              84            0                      
                              86            0                      
                              88            0                      
                              90            0                      
                              92            0                      
                              94            0                      
                              96            0                      
                              98            0                      
system.cpu0.IQ:residence:FloatSqrt.max_value            0                      
system.cpu0.IQ:residence:FloatSqrt.end_dist

system.cpu0.IQ:residence:MemRead.start_dist
system.cpu0.IQ:residence:MemRead.samples     42138101                      
system.cpu0.IQ:residence:MemRead.min_value            1                      
                               0      5372917   1275.07%   1275.07%
                               2      8116323   1926.12%   3201.20%
                               4      4502464   1068.50%   4269.70%
                               6      3694246    876.70%   5146.40%
                               8      2556818    606.77%   5753.17%
                              10      2152686    510.86%   6264.04%
                              12      1960805    465.33%   6729.36%
                              14      1871519    444.14%   7173.50%
                              16      1845334    437.93%   7611.43%
                              18      1625128    385.67%   7997.10%
                              20      1553173    368.59%   8365.69%
                              22       889859    211.18%   8576.86%
                              24       580602    137.79%   8714.65%
                              26       237432     56.35%   8770.99%
                              28       311293     73.87%   8844.87%
                              30       369790     87.76%   8932.63%
                              32       124152     29.46%   8962.09%
                              34       141668     33.62%   8995.71%
                              36       156721     37.19%   9032.90%
                              38       158851     37.70%   9070.60%
                              40       162773     38.63%   9109.23%
                              42       163592     38.82%   9148.05%
                              44       110372     26.19%   9174.24%
                              46       152118     36.10%   9210.34%
                              48        77588     18.41%   9228.76%
                              50       114220     27.11%   9255.86%
                              52        71552     16.98%   9272.84%
                              54       100597     23.87%   9296.72%
                              56        40314      9.57%   9306.28%
                              58        64325     15.27%   9321.55%
                              60        80218     19.04%   9340.58%
                              62        63775     15.13%   9355.72%
                              64       120978     28.71%   9384.43%
                              66        33776      8.02%   9392.44%
                              68        30560      7.25%   9399.70%
                              70        51276     12.17%   9411.87%
                              72        53071     12.59%   9424.46%
                              74        31219      7.41%   9431.87%
                              76        26674      6.33%   9438.20%
                              78        67183     15.94%   9454.14%
                              80        37474      8.89%   9463.04%
                              82        29334      6.96%   9470.00%
                              84        38343      9.10%   9479.10%
                              86        55551     13.18%   9492.28%
                              88        19491      4.63%   9496.91%
                              90        26006      6.17%   9503.08%
                              92        20710      4.91%   9507.99%
                              94        31894      7.57%   9515.56%
                              96        29012      6.88%   9522.45%
                              98        11061      2.62%   9525.07%
system.cpu0.IQ:residence:MemRead.overflows      2001263                      
system.cpu0.IQ:residence:MemRead.max_value        21440                      
system.cpu0.IQ:residence:MemRead.end_dist

system.cpu0.IQ:residence:MemWrite.start_dist
system.cpu0.IQ:residence:MemWrite.samples     25303001                      
system.cpu0.IQ:residence:MemWrite.min_value            1                      
                               0      2435835    962.67%    962.67%
                               2      5565707   2199.62%   3162.29%
                               4      3371399   1332.41%   4494.70%
                               6      2492142    984.92%   5479.62%
                               8      1985323    784.62%   6264.24%
                              10      1101127    435.18%   6699.42%
                              12       949304    375.17%   7074.59%
                              14       845572    334.18%   7408.77%
                              16      1184917    468.29%   7877.06%
                              18       917729    362.70%   8239.76%
                              20       991182    391.73%   8631.48%
                              22       537511    212.43%   8843.91%
                              24       427559    168.98%   9012.89%
                              26       120467     47.61%   9060.50%
                              28       141598     55.96%   9116.46%
                              30       110256     43.57%   9160.03%
                              32       145121     57.35%   9217.38%
                              34       178369     70.49%   9287.88%
                              36       187469     74.09%   9361.97%
                              38       152549     60.29%   9422.26%
                              40       162931     64.39%   9486.65%
                              42        95465     37.73%   9524.38%
                              44        96929     38.31%   9562.68%
                              46        55497     21.93%   9584.62%
                              48        43591     17.23%   9601.84%
                              50       147395     58.25%   9660.10%
                              52        66037     26.10%   9686.20%
                              54        25589     10.11%   9696.31%
                              56        24080      9.52%   9705.83%
                              58        17711      7.00%   9712.82%
                              60        47758     18.87%   9731.70%
                              62        61649     24.36%   9756.06%
                              64       121228     47.91%   9803.97%
                              66        20519      8.11%   9812.08%
                              68        15982      6.32%   9818.40%
                              70        18362      7.26%   9825.66%
                              72        20565      8.13%   9833.78%
                              74        15396      6.08%   9839.87%
                              76        31343     12.39%   9852.26%
                              78        41600     16.44%   9868.70%
                              80        34276     13.55%   9882.24%
                              82        21117      8.35%   9890.59%
                              84        11972      4.73%   9895.32%
                              86         8815      3.48%   9898.80%
                              88         9947      3.93%   9902.73%
                              90         8618      3.41%   9906.14%
                              92        15869      6.27%   9912.41%
                              94        11478      4.54%   9916.95%
                              96         6803      2.69%   9919.64%
                              98         5521      2.18%   9921.82%
system.cpu0.IQ:residence:MemWrite.overflows       197822                      
system.cpu0.IQ:residence:MemWrite.max_value        21445                      
system.cpu0.IQ:residence:MemWrite.end_dist

system.cpu0.IQ:residence:IprAccess.start_dist
system.cpu0.IQ:residence:IprAccess.samples      2868565                      
system.cpu0.IQ:residence:IprAccess.min_value            1                      
                               0       539156   1879.53%   1879.53%
                               2       484082   1687.54%   3567.07%
                               4       203595    709.75%   4276.82%
                               6       558325   1946.36%   6223.17%
                               8       437512   1525.19%   7748.37%
                              10       174644    608.82%   8357.19%
                              12       125926    438.99%   8796.18%
                              14        37312    130.07%   8926.25%
                              16        98117    342.04%   9268.29%
                              18        63382    220.95%   9489.24%
                              20        41738    145.50%   9634.74%
                              22        18592     64.81%   9699.56%
                              24        12716     44.33%   9743.89%
                              26         4227     14.74%   9758.62%
                              28        27259     95.03%   9853.65%
                              30         2829      9.86%   9863.51%
                              32         2154      7.51%   9871.02%
                              34         2643      9.21%   9880.23%
                              36         4250     14.82%   9895.05%
                              38         4330     15.09%   9910.14%
                              40         1054      3.67%   9913.82%
                              42          511      1.78%   9915.60%
                              44          925      3.22%   9918.82%
                              46          679      2.37%   9921.19%
                              48         1729      6.03%   9927.22%
                              50          728      2.54%   9929.76%
                              52          774      2.70%   9932.45%
                              54          497      1.73%   9934.19%
                              56          472      1.65%   9935.83%
                              58         2935     10.23%   9946.06%
                              60         1089      3.80%   9949.86%
                              62          601      2.10%   9951.96%
                              64         2180      7.60%   9959.55%
                              66          332      1.16%   9960.71%
                              68          272      0.95%   9961.66%
                              70          395      1.38%   9963.04%
                              72          440      1.53%   9964.57%
                              74          267      0.93%   9965.50%
                              76          712      2.48%   9967.98%
                              78         1359      4.74%   9972.72%
                              80          824      2.87%   9975.59%
                              82          262      0.91%   9976.51%
                              84          700      2.44%   9978.95%
                              86          704      2.45%   9981.40%
                              88          623      2.17%   9983.57%
                              90          991      3.45%   9987.03%
                              92          190      0.66%   9987.69%
                              94          508      1.77%   9989.46%
                              96          185      0.64%   9990.11%
                              98          162      0.56%   9990.67%
system.cpu0.IQ:residence:IprAccess.overflows         2676                      
system.cpu0.IQ:residence:IprAccess.max_value          373                      
system.cpu0.IQ:residence:IprAccess.end_dist

system.cpu0.IQ:residence:InstPrefetch.start_dist
system.cpu0.IQ:residence:InstPrefetch.samples            0                      
system.cpu0.IQ:residence:InstPrefetch.min_value            0                      
                               0            0                      
                               2            0                      
                               4            0                      
                               6            0                      
                               8            0                      
                              10            0                      
                              12            0                      
                              14            0                      
                              16            0                      
                              18            0                      
                              20            0                      
                              22            0                      
                              24            0                      
                              26            0                      
                              28            0                      
                              30            0                      
                              32            0                      
                              34            0                      
                              36            0                      
                              38            0                      
                              40            0                      
                              42            0                      
                              44            0                      
                              46            0                      
                              48            0                      
                              50            0                      
                              52            0                      
                              54            0                      
                              56            0                      
                              58            0                      
                              60            0                      
                              62            0                      
                              64            0                      
                              66            0                      
                              68            0                      
                              70            0                      
                              72            0                      
                              74            0                      
                              76            0                      
                              78            0                      
                              80            0                      
                              82            0                      
                              84            0                      
                              86            0                      
                              88            0                      
                              90            0                      
                              92            0                      
                              94            0                      
                              96            0                      
                              98            0                      
system.cpu0.IQ:residence:InstPrefetch.max_value            0                      
system.cpu0.IQ:residence:InstPrefetch.end_dist

system.cpu0.ISSUE:(null)_delay.start_dist 
system.cpu0.ISSUE:(null)_delay.samples          10118                      
system.cpu0.ISSUE:(null)_delay.min_value            1                      
                               0         9020   8914.81%   8914.81%
                               2          697    688.87%   9603.68%
                               4          205    202.61%   9806.29%
                               6           31     30.64%   9836.92%
                               8          154    152.20%   9989.13%
                              10            4      3.95%   9993.08%
                              12            4      3.95%   9997.03%
                              14            0      0.00%   9997.03%
                              16            2      1.98%   9999.01%
                              18            1      0.99%  10000.00%
                              20            0      0.00%  10000.00%
                              22            0      0.00%  10000.00%
                              24            0      0.00%  10000.00%
                              26            0      0.00%  10000.00%
                              28            0      0.00%  10000.00%
                              30            0      0.00%  10000.00%
                              32            0      0.00%  10000.00%
                              34            0      0.00%  10000.00%
                              36            0      0.00%  10000.00%
                              38            0      0.00%  10000.00%
                              40            0      0.00%  10000.00%
                              42            0      0.00%  10000.00%
                              44            0      0.00%  10000.00%
                              46            0      0.00%  10000.00%
                              48            0      0.00%  10000.00%
                              50            0      0.00%  10000.00%
                              52            0      0.00%  10000.00%
                              54            0      0.00%  10000.00%
                              56            0      0.00%  10000.00%
                              58            0      0.00%  10000.00%
                              60            0      0.00%  10000.00%
                              62            0      0.00%  10000.00%
                              64            0      0.00%  10000.00%
                              66            0      0.00%  10000.00%
                              68            0      0.00%  10000.00%
                              70            0      0.00%  10000.00%
                              72            0      0.00%  10000.00%
                              74            0      0.00%  10000.00%
                              76            0      0.00%  10000.00%
                              78            0      0.00%  10000.00%
                              80            0      0.00%  10000.00%
                              82            0      0.00%  10000.00%
                              84            0      0.00%  10000.00%
                              86            0      0.00%  10000.00%
                              88            0      0.00%  10000.00%
                              90            0      0.00%  10000.00%
                              92            0      0.00%  10000.00%
                              94            0      0.00%  10000.00%
                              96            0      0.00%  10000.00%
                              98            0      0.00%  10000.00%
system.cpu0.ISSUE:(null)_delay.max_value           18                      
system.cpu0.ISSUE:(null)_delay.end_dist

system.cpu0.ISSUE:IntAlu_delay.start_dist 
system.cpu0.ISSUE:IntAlu_delay.samples      131528842                      
system.cpu0.ISSUE:IntAlu_delay.min_value            0                      
                               0    119712354   9101.60%   9101.60%
                               2      5847884    444.61%   9546.21%
                               4      1981500    150.65%   9696.86%
                               6       859415     65.34%   9762.21%
                               8       555980     42.27%   9804.48%
                              10       286841     21.81%   9826.28%
                              12       431215     32.78%   9859.07%
                              14       892261     67.84%   9926.91%
                              16       544419     41.39%   9968.30%
                              18       118725      9.03%   9977.32%
                              20       183171     13.93%   9991.25%
                              22       114995      8.74%   9999.99%
                              24           82      0.01%  10000.00%
                              26            0      0.00%  10000.00%
                              28            0      0.00%  10000.00%
                              30            0      0.00%  10000.00%
                              32            0      0.00%  10000.00%
                              34            0      0.00%  10000.00%
                              36            0      0.00%  10000.00%
                              38            0      0.00%  10000.00%
                              40            0      0.00%  10000.00%
                              42            0      0.00%  10000.00%
                              44            0      0.00%  10000.00%
                              46            0      0.00%  10000.00%
                              48            0      0.00%  10000.00%
                              50            0      0.00%  10000.00%
                              52            0      0.00%  10000.00%
                              54            0      0.00%  10000.00%
                              56            0      0.00%  10000.00%
                              58            0      0.00%  10000.00%
                              60            0      0.00%  10000.00%
                              62            0      0.00%  10000.00%
                              64            0      0.00%  10000.00%
                              66            0      0.00%  10000.00%
                              68            0      0.00%  10000.00%
                              70            0      0.00%  10000.00%
                              72            0      0.00%  10000.00%
                              74            0      0.00%  10000.00%
                              76            0      0.00%  10000.00%
                              78            0      0.00%  10000.00%
                              80            0      0.00%  10000.00%
                              82            0      0.00%  10000.00%
                              84            0      0.00%  10000.00%
                              86            0      0.00%  10000.00%
                              88            0      0.00%  10000.00%
                              90            0      0.00%  10000.00%
                              92            0      0.00%  10000.00%
                              94            0      0.00%  10000.00%
                              96            0      0.00%  10000.00%
                              98            0      0.00%  10000.00%
system.cpu0.ISSUE:IntAlu_delay.max_value           24                      
system.cpu0.ISSUE:IntAlu_delay.end_dist

system.cpu0.ISSUE:IntMult_delay.start_dist
system.cpu0.ISSUE:IntMult_delay.samples         96042                      
system.cpu0.ISSUE:IntMult_delay.min_value            0                      
                               0        95740   9968.56%   9968.56%
                               2          222     23.11%   9991.67%
                               4           27      2.81%   9994.48%
                               6           31      3.23%   9997.71%
                               8            4      0.42%   9998.13%
                              10            2      0.21%   9998.33%
                              12           10      1.04%   9999.38%
                              14            4      0.42%   9999.79%
                              16            2      0.21%  10000.00%
                              18            0      0.00%  10000.00%
                              20            0      0.00%  10000.00%
                              22            0      0.00%  10000.00%
                              24            0      0.00%  10000.00%
                              26            0      0.00%  10000.00%
                              28            0      0.00%  10000.00%
                              30            0      0.00%  10000.00%
                              32            0      0.00%  10000.00%
                              34            0      0.00%  10000.00%
                              36            0      0.00%  10000.00%
                              38            0      0.00%  10000.00%
                              40            0      0.00%  10000.00%
                              42            0      0.00%  10000.00%
                              44            0      0.00%  10000.00%
                              46            0      0.00%  10000.00%
                              48            0      0.00%  10000.00%
                              50            0      0.00%  10000.00%
                              52            0      0.00%  10000.00%
                              54            0      0.00%  10000.00%
                              56            0      0.00%  10000.00%
                              58            0      0.00%  10000.00%
                              60            0      0.00%  10000.00%
                              62            0      0.00%  10000.00%
                              64            0      0.00%  10000.00%
                              66            0      0.00%  10000.00%
                              68            0      0.00%  10000.00%
                              70            0      0.00%  10000.00%
                              72            0      0.00%  10000.00%
                              74            0      0.00%  10000.00%
                              76            0      0.00%  10000.00%
                              78            0      0.00%  10000.00%
                              80            0      0.00%  10000.00%
                              82            0      0.00%  10000.00%
                              84            0      0.00%  10000.00%
                              86            0      0.00%  10000.00%
                              88            0      0.00%  10000.00%
                              90            0      0.00%  10000.00%
                              92            0      0.00%  10000.00%
                              94            0      0.00%  10000.00%
                              96            0      0.00%  10000.00%
                              98            0      0.00%  10000.00%
system.cpu0.ISSUE:IntMult_delay.max_value           16                      
system.cpu0.ISSUE:IntMult_delay.end_dist

system.cpu0.ISSUE:IntDiv_delay.start_dist 
system.cpu0.ISSUE:IntDiv_delay.samples              0                      
system.cpu0.ISSUE:IntDiv_delay.min_value            0                      
                               0            0                      
                               2            0                      
                               4            0                      
                               6            0                      
                               8            0                      
                              10            0                      
                              12            0                      
                              14            0                      
                              16            0                      
                              18            0                      
                              20            0                      
                              22            0                      
                              24            0                      
                              26            0                      
                              28            0                      
                              30            0                      
                              32            0                      
                              34            0                      
                              36            0                      
                              38            0                      
                              40            0                      
                              42            0                      
                              44            0                      
                              46            0                      
                              48            0                      
                              50            0                      
                              52            0                      
                              54            0                      
                              56            0                      
                              58            0                      
                              60            0                      
                              62            0                      
                              64            0                      
                              66            0                      
                              68            0                      
                              70            0                      
                              72            0                      
                              74            0                      
                              76            0                      
                              78            0                      
                              80            0                      
                              82            0                      
                              84            0                      
                              86            0                      
                              88            0                      
                              90            0                      
                              92            0                      
                              94            0                      
                              96            0                      
                              98            0                      
system.cpu0.ISSUE:IntDiv_delay.max_value            0                      
system.cpu0.ISSUE:IntDiv_delay.end_dist

system.cpu0.ISSUE:FloatAdd_delay.start_dist
system.cpu0.ISSUE:FloatAdd_delay.samples         9751                      
system.cpu0.ISSUE:FloatAdd_delay.min_value            0                      
                               0         4980   5107.17%   5107.17%
                               2          176    180.49%   5287.66%
                               4            3      3.08%   5290.74%
                               6          602    617.37%   5908.11%
                               8           28     28.72%   5936.83%
                              10          334    342.53%   6279.36%
                              12          868    890.17%   7169.52%
                              14          381    390.73%   7560.25%
                              16         2379   2439.75%  10000.00%
                              18            0      0.00%  10000.00%
                              20            0      0.00%  10000.00%
                              22            0      0.00%  10000.00%
                              24            0      0.00%  10000.00%
                              26            0      0.00%  10000.00%
                              28            0      0.00%  10000.00%
                              30            0      0.00%  10000.00%
                              32            0      0.00%  10000.00%
                              34            0      0.00%  10000.00%
                              36            0      0.00%  10000.00%
                              38            0      0.00%  10000.00%
                              40            0      0.00%  10000.00%
                              42            0      0.00%  10000.00%
                              44            0      0.00%  10000.00%
[...]
system.cpu0.kern.ipl_ticks_0              12306425174     99.52%     99.52%
system.cpu0.kern.ipl_ticks_21                  111015      0.00%     99.52%
system.cpu0.kern.ipl_ticks_22                10428727      0.08%     99.60%
system.cpu0.kern.ipl_ticks_31                49233510      0.40%    100.00%
system.cpu0.kern.ipl_used                    0.858179                      
system.cpu0.kern.ipl_used_0                  0.989657                      
system.cpu0.kern.ipl_used_21                        1                      
system.cpu0.kern.ipl_used_22                        1                      
system.cpu0.kern.ipl_used_31                 0.745242                      
system.cpu0.kern.mode_good_kernel                3358                      
system.cpu0.kern.mode_good_user                  3090                      
system.cpu0.kern.mode_good_idle                   202                      
system.cpu0.kern.mode_good_interrupt               66                      
system.cpu0.kern.mode_switch_kernel             14270                      
system.cpu0.kern.mode_switch_user                3090                      
system.cpu0.kern.mode_switch_idle               76040                      
system.cpu0.kern.mode_switch_interrupt             66                      
system.cpu0.kern.mode_switch_good            0.071855                      
system.cpu0.kern.mode_switch_good_kernel     0.235319                      
system.cpu0.kern.mode_switch_good_user              1                      
system.cpu0.kern.mode_switch_good_idle       0.002656                      
system.cpu0.kern.mode_switch_good_interrupt            1                      
system.cpu0.kern.mode_ticks_kernel           74759865      0.60%      0.60%
system.cpu0.kern.mode_ticks_user              8508624      0.07%      0.67%
system.cpu0.kern.mode_ticks_idle          12281142102     99.31%     99.99%
system.cpu0.kern.mode_ticks_interrupt         1787835      0.01%    100.00%
system.cpu0.kern.swap_context                    5865                      
system.cpu0.kern.syscall                          722                      
system.cpu0.kern.syscall_fork                      13      1.80%      1.80%
system.cpu0.kern.syscall_read                      46      6.37%      8.17%
system.cpu0.kern.syscall_write                     16      2.22%     10.39%
system.cpu0.kern.syscall_close                     61      8.45%     18.84%
system.cpu0.kern.syscall_chdir                      2      0.28%     19.11%
system.cpu0.kern.syscall_chmod                      1      0.14%     19.25%
system.cpu0.kern.syscall_obreak                    61      8.45%     27.70%
system.cpu0.kern.syscall_lseek                     10      1.39%     29.09%
system.cpu0.kern.syscall_getpid                    10      1.39%     30.47%
system.cpu0.kern.syscall_setuid                     6      0.83%     31.30%
system.cpu0.kern.syscall_getuid                    12      1.66%     32.96%
system.cpu0.kern.syscall_access                     4      0.55%     33.52%
system.cpu0.kern.syscall_dup                        4      0.55%     34.07%
system.cpu0.kern.syscall_open                      96     13.30%     47.37%
system.cpu0.kern.syscall_getgid                    12      1.66%     49.03%
system.cpu0.kern.syscall_sigprocmask               17      2.35%     51.39%
system.cpu0.kern.syscall_ioctl                     31      4.29%     55.68%
system.cpu0.kern.syscall_readlink                   3      0.42%     56.09%
system.cpu0.kern.syscall_execve                    10      1.39%     57.48%
system.cpu0.kern.syscall_pre_F64_stat              40      5.54%     63.02%
system.cpu0.kern.syscall_pre_F64_lstat             65      9.00%     72.02%
system.cpu0.kern.syscall_mmap                      84     11.63%     83.66%
system.cpu0.kern.syscall_munmap                    12      1.66%     85.32%
system.cpu0.kern.syscall_mprotect                  21      2.91%     88.23%
system.cpu0.kern.syscall_gethostname                3      0.42%     88.64%
system.cpu0.kern.syscall_dup2                       3      0.42%     89.06%
system.cpu0.kern.syscall_pre_F64_fstat             43      5.96%     95.01%
system.cpu0.kern.syscall_fcntl                     17      2.35%     97.37%
system.cpu0.kern.syscall_socket                     4      0.55%     97.92%
system.cpu0.kern.syscall_connect                    4      0.55%     98.48%
system.cpu0.kern.syscall_setgid                     6      0.83%     99.31%
system.cpu0.kern.syscall_getrlimit                  2      0.28%     99.58%
system.cpu0.kern.syscall_setsid                     3      0.42%    100.00%
system.cpu0.numCycles                     12366200224                      
system.cpu0inst_class_dist.start_dist
                   All ops ready            0      0.00%           
                One op not ready            0      0.00%           
           None rdy, mult chains            0      0.00%           
           None rdy, one chained            0      0.00%           
        None rdy, all self-timed            0      0.00%           
system.cpu0inst_class_dist.end_dist
system.htbus.addr_idle_cycles             12365268590                      
system.htbus.addr_idle_fraction              0.999925                      
system.htbus.addr_queued                    49.038733                      
system.htbus.addr_queued_cycles               5260532                      
system.htbus.addr_requests                     107273                      
system.htbus.bus_blocked                            0                      
system.htbus.bus_blocked_cycles                     0                      
system.htbus.bus_blocked_fraction                   0                      
system.htbus.data_idle_cycles             12365195062                      
system.htbus.data_idle_fraction              0.999919                      
system.htbus.data_queued                            1                      
system.htbus.data_queued_cycles                  9273                      
system.htbus.data_requests                       9273                      
system.htbus.null_grants                            0                      
system.kern.fnCalls                                 0                      
system.l2.avg_blocked_cycles_no_mshrs    <err: div-0>                      
system.l2.avg_blocked_cycles_no_targets  <err: div-0>                      
system.l2.avg_refs                           8.196554                      
system.l2.blocked_no_mshrs                          0                      
system.l2.blocked_no_targets                        0                      
system.l2.blocked_cycles_no_mshrs                   0                      
system.l2.blocked_cycles_no_targets                 0                      
system.l2.cache_copies                              0                      
system.l2.demand_accesses                     2366532                      
system.l2.demand_avg_miss_latency           71.934938                      
system.l2.demand_avg_mshr_miss_latency      42.211561                      
system.l2.demand_hits                         2041089                      
system.l2.demand_miss_latency                23410722                      
system.l2.demand_miss_rate                   0.137519                      
system.l2.demand_misses                        325443                      
system.l2.demand_mshr_hits                          0                      
system.l2.demand_mshr_miss_latency           13737457                      
system.l2.demand_mshr_miss_rate              0.137519                      
system.l2.demand_mshr_misses                   325443                      
system.l2.fast_writes                               0                      
system.l2.mshr_cap_events                           0                      
system.l2.no_allocate_misses                        0                      
system.l2.overall_accesses                    2979628                      
system.l2.overall_avg_miss_latency          71.934938                      
system.l2.overall_avg_mshr_miss_latency     42.211561                      
system.l2.overall_avg_mshr_uncacheable_latency   160.506672                      
system.l2.overall_hits                        2654185                      
system.l2.overall_miss_latency               23410722                      
system.l2.overall_miss_rate                  0.109223                      
system.l2.overall_misses                       325443                      
system.l2.overall_mshr_hits                         0                      
system.l2.overall_mshr_miss_latency          13737457                      
system.l2.overall_mshr_miss_rate             0.109223                      
system.l2.overall_mshr_misses                  325443                      
system.l2.overall_mshr_uncacheable_latency      7084283                      
system.l2.overall_mshr_uncacheable_misses        44137                      
system.l2.prefetcher.num_hwpf_already_in_cache            0                      
system.l2.prefetcher.num_hwpf_already_in_mshr            0                      
system.l2.prefetcher.num_hwpf_already_in_prefetcher            0                      
system.l2.prefetcher.num_hwpf_evicted               0                      
system.l2.prefetcher.num_hwpf_identified            0                      
system.l2.prefetcher.num_hwpf_issued                0                      
system.l2.prefetcher.num_hwpf_removed_MSHR_hit            0                      
system.l2.prefetcher.num_hwpf_span_page             0                      
system.l2.prefetcher.num_hwpf_squashed_from_miss            0                      
system.l2.read_accesses                       2366532                      
system.l2.read_avg_miss_latency             71.934938                      
system.l2.read_avg_mshr_miss_latency        42.211561                      
system.l2.read_avg_mshr_uncacheable_latency   287.580642                      
system.l2.read_hits                           2041089                      
system.l2.read_miss_latency                  23410722                      
system.l2.read_miss_rate                     0.137519                      
system.l2.read_misses                          325443                      
system.l2.read_mshr_miss_latency             13737457                      
system.l2.read_mshr_miss_rate                0.137519                      
system.l2.read_mshr_misses                     325443                      
system.l2.read_mshr_uncacheable                  9846                      
system.l2.read_mshr_uncacheable_latency       2831519                      
system.l2.replacements                         291579                      
system.l2.sampled_refs                         323687                      
system.l2.soft_prefetch_mshr_full                   0                      
system.l2.tagsinuse                      31669.471415                      
system.l2.total_refs                          2653118                      
system.l2.warmup_cycle                        3728314                      
system.l2.write_avg_mshr_uncacheable_latency   124.019830                      
system.l2.write_mshr_uncacheable                34291                      
system.l2.write_mshr_uncacheable_latency      4252764                      
system.l2.writeback_accesses                   613096                      
system.l2.writeback_hits                       613096                      
system.l2.writebacks                           143612                      
system.l2bus.addr_idle_cycles             12363100415                      
system.l2bus.addr_idle_fraction              0.999749                      
system.l2bus.addr_queued                     3.810466                      
system.l2bus.addr_queued_cycles              11808075                      
system.l2bus.addr_requests                    3098853                      
system.l2bus.bus_blocked                          212                      
system.l2bus.bus_blocked_cycles                110803                      
system.l2bus.bus_blocked_fraction            0.000009                      
system.l2bus.data_idle_cycles             12363176405                      
system.l2bus.data_idle_fraction              0.999755                      
system.l2bus.data_queued                     1.021101                      
system.l2bus.data_queued_cycles               2426548                      
system.l2bus.data_requests                    2376404                      
system.l2bus.null_grants                       136857                      
system.membus.addr_idle_cycles            12365570759                      
system.membus.addr_idle_fraction             0.999949                      
system.membus.addr_queued                   25.096432                      
system.membus.addr_queued_cycles             15788592                      
system.membus.addr_requests                    629117                      
system.membus.bus_blocked                           0                      
system.membus.bus_blocked_cycles                    0                      
system.membus.bus_blocked_fraction                  0                      
system.membus.data_idle_cycles            12364115893                      
system.membus.data_idle_fraction             0.999831                      
system.membus.data_queued                    4.931290                      
system.membus.data_queued_cycles              1654364                      
system.membus.data_requests                    335483                      
system.membus.null_grants                           0                      
system.pcibus.addr_idle_cycles            12364892448                      
system.pcibus.addr_idle_fraction             0.999894                      
system.pcibus.addr_queued                  716.610620                      
system.pcibus.addr_queued_cycles             76872971                      
system.pcibus.addr_requests                    107273                      
system.pcibus.bus_blocked                        2546                      
system.pcibus.bus_blocked_cycles                89107                      
system.pcibus.bus_blocked_fraction           0.000007                      
system.pcibus.data_idle_cycles            12363997516                      
system.pcibus.data_idle_fraction             0.999822                      
system.pcibus.data_queued                    4.344333                      
system.pcibus.data_queued_cycles                40285                      
system.pcibus.data_requests                      9273                      
system.pcibus.null_grants                           0                      
system.ram.accesses                            509969                      
system.ram.bytes_requested                          0                      
system.ram.bytes_sent                               0                      
system.ram.compressed_responses                     0                      
system.tsunami.etherdev0.coalescedRxDesc <err: div-0>                      
system.tsunami.etherdev0.coalescedRxIdle <err: div-0>                      
system.tsunami.etherdev0.coalescedRxOk   <err: div-0>                      
system.tsunami.etherdev0.coalescedRxOrn  <err: div-0>                      
system.tsunami.etherdev0.coalescedSwi    <err: div-0>                      
system.tsunami.etherdev0.coalescedTotal  <err: div-0>                      
system.tsunami.etherdev0.coalescedTxDesc <err: div-0>                      
system.tsunami.etherdev0.coalescedTxIdle <err: div-0>                      
system.tsunami.etherdev0.coalescedTxOk   <err: div-0>                      
system.tsunami.etherdev0.descDMAReads               0                      
system.tsunami.etherdev0.descDMAWrites              0                      
system.tsunami.etherdev0.descDmaReadBytes            0                      
system.tsunami.etherdev0.descDmaWriteBytes            0                      
system.tsunami.etherdev0.dma.avg_large_transaction_latency <err: div-0>                      
system.tsunami.etherdev0.dma.avg_small_transaction_latency <err: div-0>                      
system.tsunami.etherdev0.dma.avg_transaction_latency <err: div-0>                      
system.tsunami.etherdev0.dma.bytes_transfered            0                      
system.tsunami.etherdev0.dma.large_transaction_latency            0                      
system.tsunami.etherdev0.dma.large_transactions            0                      
system.tsunami.etherdev0.dma.packets_sent            0                      
system.tsunami.etherdev0.dma.requests               0                      
system.tsunami.etherdev0.dma.round_trip_latency <err: div-0>                      
system.tsunami.etherdev0.dma.small_transaction_latency            0                      
system.tsunami.etherdev0.dma.small_transactions            0                      
system.tsunami.etherdev0.dma.total_cycle_latency            0                      
system.tsunami.etherdev0.dma.transaction_latency            0                      
system.tsunami.etherdev0.droppedPackets             0                      
system.tsunami.etherdev0.postedInterrupts            0                      
system.tsunami.etherdev0.postedRxDesc               0                      
system.tsunami.etherdev0.postedRxIdle               0                      
system.tsunami.etherdev0.postedRxOk                 0                      
system.tsunami.etherdev0.postedRxOrn                0                      
system.tsunami.etherdev0.postedSwi                  0                      
system.tsunami.etherdev0.postedTxDesc               0                      
system.tsunami.etherdev0.postedTxIdle               0                      
system.tsunami.etherdev0.postedTxOk                 0                      
system.tsunami.etherdev0.totalRxDesc                0                      
system.tsunami.etherdev0.totalRxIdle                0                      
system.tsunami.etherdev0.totalRxOk                  0                      
system.tsunami.etherdev0.totalRxOrn                 0                      
system.tsunami.etherdev0.totalSwi                   0                      
system.tsunami.etherdev0.totalTxDesc                0                      
system.tsunami.etherdev0.totalTxIdle                0                      
system.tsunami.etherdev0.totalTxOk                  0                      
system.tsunami.ide.dma.avg_large_transaction_latency  3605.470588                      
system.tsunami.ide.dma.avg_small_transaction_latency   320.241573                      
system.tsunami.ide.dma.avg_transaction_latency  2607.568259                      
system.tsunami.ide.dma.bytes_transfered       2618040                      
system.tsunami.ide.dma.large_transaction_latency      1471032                      
system.tsunami.ide.dma.large_transactions          408                      
system.tsunami.ide.dma.packets_sent             40914                      
system.tsunami.ide.dma.requests                   586                      
system.tsunami.ide.dma.round_trip_latency  2109.295987                      
system.tsunami.ide.dma.small_transaction_latency        57003                      
system.tsunami.ide.dma.small_transactions          178                      
system.tsunami.ide.dma.total_cycle_latency     86299736                      
system.tsunami.ide.dma.transaction_latency      1528035                      

---------- End Simulation Statistics   ----------
