
---------- Begin Simulation Statistics ----------
host_inst_rate                                  15279                      
host_mem_usage                                 197012                      
host_seconds                                 25984.12                      
host_tick_rate                                 104278                      
sim_freq                                    200000000                      
sim_insts                                   397016775                      
sim_seconds                                 13.547879                      
sim_ticks                                  2709575749                      
system.cpu0.COM:IPB                          5.663031                      
system.cpu0.COM:IPC                          0.046600                      
system.cpu0.COM:branches                     22296687                      
system.cpu0.COM:bw_lim_avg               <err: div-0>                      
system.cpu0.COM:bw_lim_events                       0                      
system.cpu0.COM:bw_lim_rate                    0.0000                      
system.cpu0.COM:bw_lim_stdev_0_mean      <err: div-0>                      
system.cpu0.COM:bw_lim_stdev_0_stdev     <err: div-0>                      
**Ignore: system.cpu0.COM:bw_lim_stdev_0_TOT       0.0000                      
system.cpu0.COM:bw_limited                          0                      
system.cpu0.COM:committed_per_cycle.start_dist
system.cpu0.COM:committed_per_cycle.samples     44540006                      
system.cpu0.COM:committed_per_cycle.min_value            0                      
                               0       455242    102.21%           
                               1     11238178   2523.16%           
                               2      6383568   1433.22%           
                               3      3380096    758.89%           
                               4     23082922   5182.51%           
system.cpu0.COM:committed_per_cycle.max_value            4                      
system.cpu0.COM:committed_per_cycle.end_dist

system.cpu0.COM:count                       126266840                      
system.cpu0.COM:loads                        19337886                      
system.cpu0.COM:membars                        426706                      
system.cpu0.COM:refs                         30755809                      
system.cpu0.COM:stores                       11417923                      
system.cpu0.COM:swp_count                      210450                      
system.cpu0.DDQ:count                      9439874519                      
system.cpu0.DDQ:rate                                3                      
system.cpu0.DIS:chain_creation.start_dist
     Inst has no outstanding IDEPS            0      0.00%           
      IDEP chain reached max depth            0      0.00%           
                    Inst is a load            0      0.00%           
  Chain has multiple chained IDEPS            0      0.00%           
system.cpu0.DIS:chain_creation.end_dist
system.cpu0.DIS:chain_head_frac                     0                      
system.cpu0.DIS:chain_heads                         0                      
system.cpu0.DIS:chains_insuf                        0                      
system.cpu0.DIS:chains_insuf_rate                   0                      
system.cpu0.DIS:count                       149485020                      
system.cpu0.DIS:insufficient_chains                 0                      
system.cpu0.DIS:mod_n_stall_avg_free     <err: div-0>                      
system.cpu0.DIS:mod_n_stall_frac                    0                      
system.cpu0.DIS:mod_n_stall_free                    0                      
system.cpu0.DIS:mod_n_stalls                        0                      
system.cpu0.DIS:one_rdy_insts                       0                      
system.cpu0.DIS:one_rdy_ratio            <err: div-0>                      
system.cpu0.DIS:op_count                    187090213                      
system.cpu0.DIS:op_rate                      0.069048                      
system.cpu0.DIS:rate                         0.055169                      
system.cpu0.DIS:second_choice_clust                 0                      
system.cpu0.DIS:second_choice_stall                 0                      
system.cpu0.DIS:serialize_stall_cycles       10321628                      
system.cpu0.DIS:serializing_insts              389496                      
system.cpu0.DIS:two_input_insts                     0                      
system.cpu0.DIS:two_input_ratio                     0                      
system.cpu0.FETCH:branch_count               45239113                      
system.cpu0.FETCH:branch_rate                0.016696                      
system.cpu0.FETCH:chance_pct                        1                      
system.cpu0.FETCH:chances                    64288535                      
system.cpu0.FETCH:choice                     64288535                      
system.cpu0.FETCH:count                     224067734                      
system.cpu0.FETCH:decisions                  64288535                      
system.cpu0.FETCH:idle_cycles              2645287215                      
system.cpu0.FETCH:idle_icache_blocked_cycles            0                      
system.cpu0.FETCH:idle_rate                     97.63                      
system.cpu0.FETCH:prio_changes                      0                      
system.cpu0.FETCH:rate                       0.082695                      
system.cpu0.FETCH:rate_dist.start_dist    
system.cpu0.FETCH:rate_dist.samples          64288535                      
system.cpu0.FETCH:rate_dist.min_value               0                      
                               0       123936     19.28%           
                               1      5862209    911.86%           
                               2      3148140    489.69%           
                               3      8707755   1354.48%           
                               4     46446495   7224.69%           
system.cpu0.FETCH:rate_dist.max_value               4                      
system.cpu0.FETCH:rate_dist.end_dist

system.cpu0.FETCH:rate_dist_0.start_dist  
system.cpu0.FETCH:rate_dist_0.samples        64288535                      
system.cpu0.FETCH:rate_dist_0.min_value             0                      
                               0       123936     19.28%           
                               1      5862209    911.86%           
                               2      3148140    489.69%           
                               3      8707755   1354.48%           
                               4     46446495   7224.69%           
system.cpu0.FETCH:rate_dist_0.max_value             4                      
system.cpu0.FETCH:rate_dist_0.end_dist

system.cpu0.IFQ:count                      3980770911                      
system.cpu0.IFQ:full_count                  114473623                      
system.cpu0.IFQ:full_rate                    4.224780                      
system.cpu0.IFQ:latency                     26.629899                      
system.cpu0.IFQ:occupancy                    1.469149                      
system.cpu0.IFQ:qfull_iq_occ               5623462347                      
system.cpu0.IFQ:qfull_iq_occ_dist_0.start_dist
system.cpu0.IFQ:qfull_iq_occ_dist_0.samples     94854268                      
system.cpu0.IFQ:qfull_iq_occ_dist_0.min_value            0                      
                               0      5260152    554.55%           
                              10       768939     81.07%           
                              20       686236     72.35%           
                              30       778561     82.08%           
                              40       801111     84.46%           
                              50       696455     73.42%           
                              60     85862814   9052.08%           
system.cpu0.IFQ:qfull_iq_occ_dist_0.max_value           64                      
system.cpu0.IFQ:qfull_iq_occ_dist_0.end_dist

system.cpu0.IFQ:qfull_rob_occ              8731950766                      
system.cpu0.IFQ:qfull_rob_occ_dist_0.start_dist
system.cpu0.IFQ:qfull_rob_occ_dist_0.samples     94854268                      
system.cpu0.IFQ:qfull_rob_occ_dist_0.min_value            1                      
                               0      1443379    152.17%           
                              10      1547028    163.10%           
                              20      1093253    115.26%           
                              30       455325     48.00%           
                              40       282709     29.80%           
                              50       181762     19.16%           
                              60      5393110    568.57%           
                              70      1316355    138.78%           
                              80       568127     59.89%           
                              90     74353969   7838.76%           
                             100      3030537    319.49%           
                             110      3275069    345.27%           
                             120      1913645    201.75%           
                             130            0      0.00%           
system.cpu0.IFQ:qfull_rob_occ_dist_0.max_value          128                      
system.cpu0.IFQ:qfull_rob_occ_dist_0.end_dist

system.cpu0.IQ:cap_events                           0                      
system.cpu0.IQ:cap_inst                             0                      
system.cpu0.IQ:residence:(null).start_dist
system.cpu0.IQ:residence:(null).samples          6162                      
system.cpu0.IQ:residence:(null).min_value            1                      
                               0         5595   9079.84%   9079.84%
                               2          369    598.83%   9678.68%
                               4          103    167.15%   9845.83%
                               6           15     24.34%   9870.17%
                               8           61     98.99%   9969.17%
                              10            2      3.25%   9972.41%
                              12            2      3.25%   9975.66%
                              14            3      4.87%   9980.53%
                              16            6      9.74%   9990.26%
                              18            4      6.49%   9996.75%
                              20            1      1.62%   9998.38%
                              22            1      1.62%  10000.00%
                              24            0      0.00%  10000.00%
                              26            0      0.00%  10000.00%
                              28            0      0.00%  10000.00%
                              30            0      0.00%  10000.00%
                              32            0      0.00%  10000.00%
                              34            0      0.00%  10000.00%
                              36            0      0.00%  10000.00%
                              38            0      0.00%  10000.00%
                              40            0      0.00%  10000.00%
                              42            0      0.00%  10000.00%
                              44            0      0.00%  10000.00%
                              46            0      0.00%  10000.00%
                              48            0      0.00%  10000.00%
                              50            0      0.00%  10000.00%
                              52            0      0.00%  10000.00%
                              54            0      0.00%  10000.00%
                              56            0      0.00%  10000.00%
                              58            0      0.00%  10000.00%
                              60            0      0.00%  10000.00%
                              62            0      0.00%  10000.00%
                              64            0      0.00%  10000.00%
                              66            0      0.00%  10000.00%
                              68            0      0.00%  10000.00%
                              70            0      0.00%  10000.00%
                              72            0      0.00%  10000.00%
                              74            0      0.00%  10000.00%
                              76            0      0.00%  10000.00%
                              78            0      0.00%  10000.00%
                              80            0      0.00%  10000.00%
                              82            0      0.00%  10000.00%
                              84            0      0.00%  10000.00%
                              86            0      0.00%  10000.00%
                              88            0      0.00%  10000.00%
                              90            0      0.00%  10000.00%
                              92            0      0.00%  10000.00%
                              94            0      0.00%  10000.00%
                              96            0      0.00%  10000.00%
                              98            0      0.00%  10000.00%
system.cpu0.IQ:residence:(null).max_value           23                      
system.cpu0.IQ:residence:(null).end_dist

system.cpu0.IQ:residence:IntAlu.start_dist
system.cpu0.IQ:residence:IntAlu.samples     100468803                      
system.cpu0.IQ:residence:IntAlu.min_value            1                      
                               0     24176694   2406.39%   2406.39%
                               2     21139149   2104.05%   4510.44%
                               4      6936065    690.37%   5200.81%
                               6      4955353    493.22%   5694.03%
                               8      3887905    386.98%   6081.01%
                              10      2865243    285.19%   6366.20%
                              12      2777929    276.50%   6642.69%
                              14      2927701    291.40%   6934.10%
                              16      3847488    382.95%   7317.05%
                              18      2853664    284.03%   7601.08%
                              20      3036185    302.20%   7903.29%
                              22      3313986    329.85%   8233.14%
                              24      1979397    197.02%   8430.16%
                              26      1097232    109.21%   8539.37%
                              28       698041     69.48%   8608.84%
                              30       612872     61.00%   8669.85%
                              32       488961     48.67%   8718.51%
                              34       491313     48.90%   8767.42%
                              36       543503     54.10%   8821.51%
                              38       508351     50.60%   8872.11%
                              40       426023     42.40%   8914.51%
                              42       376845     37.51%   8952.02%
                              44       405481     40.36%   8992.38%
                              46       319637     31.81%   9024.20%
                              48       264930     26.37%   9050.57%
                              50       229725     22.87%   9073.43%
                              52       234935     23.38%   9096.81%
                              54       214007     21.30%   9118.12%
                              56        82070      8.17%   9126.28%
                              58        88561      8.81%   9135.10%
                              60        82325      8.19%   9143.29%
                              62       195040     19.41%   9162.71%
                              64       126244     12.57%   9175.27%
                              66        91202      9.08%   9184.35%
                              68        82683      8.23%   9192.58%
                              70        62315      6.20%   9198.78%
                              72        57484      5.72%   9204.50%
                              74        49819      4.96%   9209.46%
                              76        69820      6.95%   9216.41%
                              78        81093      8.07%   9224.48%
                              80        37949      3.78%   9228.26%
                              82        39647      3.95%   9232.21%
                              84        39217      3.90%   9236.11%
                              86        38346      3.82%   9239.93%
                              88        53323      5.31%   9245.23%
                              90        53053      5.28%   9250.51%
                              92        37294      3.71%   9254.23%
                              94        44876      4.47%   9258.69%
                              96        32127      3.20%   9261.89%
                              98        40929      4.07%   9265.96%
system.cpu0.IQ:residence:IntAlu.overflows      7374771                      
system.cpu0.IQ:residence:IntAlu.max_value        18879                      
system.cpu0.IQ:residence:IntAlu.end_dist

system.cpu0.IQ:residence:IntMult.start_dist
system.cpu0.IQ:residence:IntMult.samples       390318                      
system.cpu0.IQ:residence:IntMult.min_value            1                      
                               0         4441    113.78%    113.78%
                               2         3608     92.44%    206.22%
                               4         7797    199.76%    405.98%
                               6         6180    158.33%    564.31%
                               8         6793    174.04%    738.35%
                              10         4887    125.21%    863.55%
                              12         6078    155.72%   1019.27%
                              14         9235    236.60%   1255.87%
                              16        17482    447.89%   1703.76%
                              18        15809    405.03%   2108.79%
                              20        96412   2470.09%   4578.88%
                              22       121066   3101.73%   7680.61%
                              24        50578   1295.82%   8976.42%
                              26         4533    116.14%   9092.56%
                              28          388      9.94%   9102.50%
                              30         3111     79.70%   9182.21%
                              32         2561     65.61%   9247.82%
                              34         3029     77.60%   9325.42%
                              36         3285     84.16%   9409.58%
                              38         2393     61.31%   9470.89%
                              40         9683    248.08%   9718.97%
                              42         1465     37.53%   9756.51%
                              44          410     10.50%   9767.01%
                              46          149      3.82%   9770.83%
                              48          214      5.48%   9776.31%
                              50          219      5.61%   9781.92%
                              52          425     10.89%   9792.81%
                              54          238      6.10%   9798.91%
                              56          431     11.04%   9809.95%
                              58           62      1.59%   9811.54%
                              60           31      0.79%   9812.33%
                              62           51      1.31%   9813.64%
                              64           36      0.92%   9814.56%
                              66           75      1.92%   9816.48%
                              68           99      2.54%   9819.02%
                              70          406     10.40%   9829.42%
                              72          313      8.02%   9837.44%
                              74          330      8.45%   9845.89%
                              76          149      3.82%   9849.71%
                              78          287      7.35%   9857.07%
                              80          143      3.66%   9860.73%
                              82          262      6.71%   9867.44%
                              84           43      1.10%   9868.54%
                              86           32      0.82%   9869.36%
                              88           59      1.51%   9870.87%
                              90           24      0.61%   9871.49%
                              92            4      0.10%   9871.59%
                              94           22      0.56%   9872.16%
                              96            7      0.18%   9872.33%
                              98           10      0.26%   9872.59%
system.cpu0.IQ:residence:IntMult.overflows         4973                      
system.cpu0.IQ:residence:IntMult.max_value          516                      
system.cpu0.IQ:residence:IntMult.end_dist

system.cpu0.IQ:residence:IntDiv.start_dist
system.cpu0.IQ:residence:IntDiv.samples             0                      
system.cpu0.IQ:residence:IntDiv.min_value            0                      
                               0            0                      
                               2            0                      
                               4            0                      
                               6            0                      
                               8            0                      
                              10            0                      
                              12            0                      
                              14            0                      
                              16            0                      
                              18            0                      
                              20            0                      
                              22            0                      
                              24            0                      
                              26            0                      
                              28            0                      
                              30            0                      
                              32            0                      
                              34            0                      
                              36            0                      
                              38            0                      
                              40            0                      
                              42            0                      
                              44            0                      
                              46            0                      
                              48            0                      
                              50            0                      
                              52            0                      
                              54            0                      
                              56            0                      
                              58            0                      
                              60            0                      
                              62            0                      
                              64            0                      
                              66            0                      
                              68            0                      
                              70            0                      
                              72            0                      
                              74            0                      
                              76            0                      
                              78            0                      
                              80            0                      
                              82            0                      
                              84            0                      
                              86            0                      
                              88            0                      
                              90            0                      
                              92            0                      
                              94            0                      
                              96            0                      
                              98            0                      
system.cpu0.IQ:residence:IntDiv.max_value            0                      
system.cpu0.IQ:residence:IntDiv.end_dist

system.cpu0.IQ:residence:FloatAdd.start_dist
system.cpu0.IQ:residence:FloatAdd.samples         7304                      
system.cpu0.IQ:residence:FloatAdd.min_value            1                      
                               0           99    135.54%    135.54%
                               2          246    336.80%    472.34%
                               4          168    230.01%    702.35%
                               6         1369   1874.32%   2576.67%
                               8           86    117.74%   2694.41%
                              10          382    523.00%   3217.42%
                              12          508    695.51%   3912.92%
                              14         1157   1584.06%   5496.99%
                              16          935   1280.12%   6777.11%
                              18            1      1.37%   6778.48%
                              20            0      0.00%   6778.48%
                              22            1      1.37%   6779.85%
                              24            0      0.00%   6779.85%
                              26            0      0.00%   6779.85%
                              28            0      0.00%   6779.85%
                              30            0      0.00%   6779.85%
                              32            3      4.11%   6783.95%
                              34           41     56.13%   6840.09%
                              36         1439   1970.15%   8810.24%
                              38          857   1173.33%   9983.57%
                              40            1      1.37%   9984.94%
                              42            1      1.37%   9986.31%
                              44            0      0.00%   9986.31%
                              46            2      2.74%   9989.05%
                              48            0      0.00%   9989.05%
                              50            0      0.00%   9989.05%
                              52            0      0.00%   9989.05%
                              54            0      0.00%   9989.05%
                              56            0      0.00%   9989.05%
                              58            1      1.37%   9990.42%
                              60            0      0.00%   9990.42%
                              62            0      0.00%   9990.42%
                              64            0      0.00%   9990.42%
                              66            0      0.00%   9990.42%
                              68            0      0.00%   9990.42%
                              70            1      1.37%   9991.79%
                              72            0      0.00%   9991.79%
                              74            1      1.37%   9993.15%
                              76            1      1.37%   9994.52%
                              78            0      0.00%   9994.52%
                              80            4      5.48%  10000.00%
                              82            0      0.00%  10000.00%
                              84            0      0.00%  10000.00%
                              86            0      0.00%  10000.00%
                              88            0      0.00%  10000.00%
                              90            0      0.00%  10000.00%
                              92            0      0.00%  10000.00%
                              94            0      0.00%  10000.00%
                              96            0      0.00%  10000.00%
                              98            0      0.00%  10000.00%
system.cpu0.IQ:residence:FloatAdd.max_value           80                      
system.cpu0.IQ:residence:FloatAdd.end_dist

system.cpu0.IQ:residence:FloatCmp.start_dist
system.cpu0.IQ:residence:FloatCmp.samples            0                      
system.cpu0.IQ:residence:FloatCmp.min_value            0                      
                               0            0                      
                               2            0                      
                               4            0                      
                               6            0                      
                               8            0                      
                              10            0                      
                              12            0                      
                              14            0                      
                              16            0                      
                              18            0                      
                              20            0                      
                              22            0                      
                              24            0                      
                              26            0                      
                              28            0                      
                              30            0                      
                              32            0                      
                              34            0                      
                              36            0                      
                              38            0                      
                              40            0                      
                              42            0                      
                              44            0                      
                              46            0                      
                              48            0                      
                              50            0                      
                              52            0                      
                              54            0                      
                              56            0                      
                              58            0                      
                              60            0                      
                              62            0                      
                              64            0                      
                              66            0                      
                              68            0                      
                              70            0                      
                              72            0                      
                              74            0                      
                              76            0                      
                              78            0                      
                              80            0                      
                              82            0                      
                              84            0                      
                              86            0                      
                              88            0                      
                              90            0                      
                              92            0                      
                              94            0                      
                              96            0                      
                              98            0                      
system.cpu0.IQ:residence:FloatCmp.max_value            0                      
system.cpu0.IQ:residence:FloatCmp.end_dist

system.cpu0.IQ:residence:FloatCvt.start_dist
system.cpu0.IQ:residence:FloatCvt.samples            0                      
system.cpu0.IQ:residence:FloatCvt.min_value            0                      
                               0            0                      
                               2            0                      
                               4            0                      
                               6            0                      
                               8            0                      
                              10            0                      
                              12            0                      
                              14            0                      
                              16            0                      
                              18            0                      
                              20            0                      
                              22            0                      
                              24            0                      
                              26            0                      
                              28            0                      
                              30            0                      
                              32            0                      
                              34            0                      
                              36            0                      
                              38            0                      
                              40            0                      
                              42            0                      
                              44            0                      
                              46            0                      
                              48            0                      
                              50            0                      
                              52            0                      
                              54            0                      
                              56            0                      
                              58            0                      
                              60            0                      
                              62            0                      
                              64            0                      
                              66            0                      
                              68            0                      
                              70            0                      
                              72            0                      
                              74            0                      
                              76            0                      
                              78            0                      
                              80            0                      
                              82            0                      
                              84            0                      
                              86            0                      
                              88            0                      
                              90            0                      
                              92            0                      
                              94            0                      
                              96            0                      
                              98            0                      
system.cpu0.IQ:residence:FloatCvt.max_value            0                      
system.cpu0.IQ:residence:FloatCvt.end_dist

system.cpu0.IQ:residence:FloatMult.start_dist
system.cpu0.IQ:residence:FloatMult.samples            2                      
system.cpu0.IQ:residence:FloatMult.min_value           74                      
                               0            0      0.00%      0.00%
                               2            0      0.00%      0.00%
                               4            0      0.00%      0.00%
                               6            0      0.00%      0.00%
                               8            0      0.00%      0.00%
                              10            0      0.00%      0.00%
                              12            0      0.00%      0.00%
                              14            0      0.00%      0.00%
                              16            0      0.00%      0.00%
                              18            0      0.00%      0.00%
                              20            0      0.00%      0.00%
                              22            0      0.00%      0.00%
                              24            0      0.00%      0.00%
                              26            0      0.00%      0.00%
                              28            0      0.00%      0.00%
                              30            0      0.00%      0.00%
                              32            0      0.00%      0.00%
                              34            0      0.00%      0.00%
                              36            0      0.00%      0.00%
                              38            0      0.00%      0.00%
                              40            0      0.00%      0.00%
                              42            0      0.00%      0.00%
                              44            0      0.00%      0.00%
                              46            0      0.00%      0.00%
                              48            0      0.00%      0.00%
                              50            0      0.00%      0.00%
                              52            0      0.00%      0.00%
                              54            0      0.00%      0.00%
                              56            0      0.00%      0.00%
                              58            0      0.00%      0.00%
                              60            0      0.00%      0.00%
                              62            0      0.00%      0.00%
                              64            0      0.00%      0.00%
                              66            0      0.00%      0.00%
                              68            0      0.00%      0.00%
                              70            0      0.00%      0.00%
                              72            0      0.00%      0.00%
                              74            1   5000.00%   5000.00%
                              76            0      0.00%   5000.00%
                              78            0      0.00%   5000.00%
                              80            0      0.00%   5000.00%
                              82            0      0.00%   5000.00%
                              84            0      0.00%   5000.00%
                              86            0      0.00%   5000.00%
                              88            0      0.00%   5000.00%
                              90            0      0.00%   5000.00%
                              92            0      0.00%   5000.00%
                              94            0      0.00%   5000.00%
                              96            0      0.00%   5000.00%
                              98            1   5000.00%  10000.00%
system.cpu0.IQ:residence:FloatMult.max_value           98                      
system.cpu0.IQ:residence:FloatMult.end_dist

system.cpu0.IQ:residence:FloatDiv.start_dist
system.cpu0.IQ:residence:FloatDiv.samples           62                      
system.cpu0.IQ:residence:FloatDiv.min_value            6                      
                               0            0      0.00%      0.00%
                               2            0      0.00%      0.00%
                               4            0      0.00%      0.00%
                               6           61   9838.71%   9838.71%
                               8            0      0.00%   9838.71%
                              10            0      0.00%   9838.71%
                              12            0      0.00%   9838.71%
                              14            0      0.00%   9838.71%
                              16            0      0.00%   9838.71%
                              18            0      0.00%   9838.71%
                              20            0      0.00%   9838.71%
                              22            0      0.00%   9838.71%
                              24            0      0.00%   9838.71%
                              26            0      0.00%   9838.71%
                              28            0      0.00%   9838.71%
                              30            0      0.00%   9838.71%
                              32            0      0.00%   9838.71%
                              34            0      0.00%   9838.71%
                              36            0      0.00%   9838.71%
                              38            0      0.00%   9838.71%
                              40            0      0.00%   9838.71%
                              42            0      0.00%   9838.71%
                              44            0      0.00%   9838.71%
                              46            0      0.00%   9838.71%
                              48            1    161.29%  10000.00%
                              50            0      0.00%  10000.00%
                              52            0      0.00%  10000.00%
                              54            0      0.00%  10000.00%
                              56            0      0.00%  10000.00%
                              58            0      0.00%  10000.00%
                              60            0      0.00%  10000.00%
                              62            0      0.00%  10000.00%
                              64            0      0.00%  10000.00%
                              66            0      0.00%  10000.00%
                              68            0      0.00%  10000.00%
                              70            0      0.00%  10000.00%
                              72            0      0.00%  10000.00%
                              74            0      0.00%  10000.00%
                              76            0      0.00%  10000.00%
                              78            0      0.00%  10000.00%
                              80            0      0.00%  10000.00%
                              82            0      0.00%  10000.00%
                              84            0      0.00%  10000.00%
                              86            0      0.00%  10000.00%
                              88            0      0.00%  10000.00%
                              90            0      0.00%  10000.00%
                              92            0      0.00%  10000.00%
                              94            0      0.00%  10000.00%
                              96            0      0.00%  10000.00%
                              98            0      0.00%  10000.00%
system.cpu0.IQ:residence:FloatDiv.max_value           49                      
system.cpu0.IQ:residence:FloatDiv.end_dist

system.cpu0.IQ:residence:FloatSqrt.start_dist
system.cpu0.IQ:residence:FloatSqrt.samples            0                      
system.cpu0.IQ:residence:FloatSqrt.min_value            0                      
                               0            0                      
                               2            0                      
                               4            0                      
                               6            0                      
                               8            0                      
                              10            0                      
                              12            0                      
                              14            0                      
                              16            0                      
                              18            0                      
                              20            0                      
                              22            0                      
                              24            0                      
                              26            0                      
                              28            0                      
                              30            0                      
                              32            0                      
                              34            0                      
                              36            0                      
                              38            0                      
                              40            0                      
                              42            0                      
                              44            0                      
                              46            0                      
                              48            0                      
                              50            0                      
                              52            0                      
                              54            0                      
                              56            0                      
                              58            0                      
                              60            0                      
                              62            0                      
                              64            0                      
                              66            0                      
                              68            0                      
                              70            0                      
                              72            0                      
                              74            0                      
                              76            0                      
                              78            0                      
                              80            0                      
                              82            0                      
                              84            0                      
                              86            0                      
                              88            0                      
                              90            0                      
                              92            0                      
                              94            0                      
                              96            0                      
                              98            0                      
system.cpu0.IQ:residence:FloatSqrt.max_value            0                      
system.cpu0.IQ:residence:FloatSqrt.end_dist

system.cpu0.IQ:residence:MemRead.start_dist
system.cpu0.IQ:residence:MemRead.samples     42405643                      
system.cpu0.IQ:residence:MemRead.min_value            1                      
                               0      4262773   1005.24%   1005.24%
                               2      6449422   1520.89%   2526.12%
                               4      3342063    788.12%   3314.24%
                               6      2816528    664.19%   3978.43%
                               8      2026816    477.96%   4456.39%
                              10      1832303    432.09%   4888.48%
                              12      1545936    364.56%   5253.04%
                              14      1421904    335.31%   5588.35%
                              16      1529186    360.61%   5948.96%
                              18      1996744    470.87%   6419.82%
                              20      2725847    642.80%   7062.63%
                              22      3076627    725.52%   7788.15%
                              24      1058165    249.53%   8037.68%
                              26       238896     56.34%   8094.02%
                              28       238790     56.31%   8150.33%
                              30       193770     45.69%   8196.02%
                              32       159051     37.51%   8233.53%
                              34       209920     49.50%   8283.03%
                              36       257828     60.80%   8343.84%
                              38       237422     55.99%   8399.82%
                              40       170088     40.11%   8439.93%
                              42       159886     37.70%   8477.64%
                              44       115500     27.24%   8504.87%
                              46       162720     38.37%   8543.25%
                              48        71292     16.81%   8560.06%
                              50       116446     27.46%   8587.52%
                              52        56544     13.33%   8600.85%
                              54        63517     14.98%   8615.83%
                              56        41072      9.69%   8625.52%
                              58        44305     10.45%   8635.96%
                              60        67032     15.81%   8651.77%
                              62        74688     17.61%   8669.38%
                              64       124940     29.46%   8698.85%
                              66        32375      7.63%   8706.48%
                              68        32378      7.64%   8714.12%
                              70        25038      5.90%   8720.02%
                              72        29563      6.97%   8726.99%
                              74        26412      6.23%   8733.22%
                              76        22257      5.25%   8738.47%
                              78        51163     12.07%   8750.54%
                              80        26968      6.36%   8756.89%
                              82        21940      5.17%   8762.07%
                              84        24604      5.80%   8767.87%
                              86        31200      7.36%   8775.23%
                              88        16606      3.92%   8779.14%
                              90        18825      4.44%   8783.58%
                              92        16891      3.98%   8787.57%
                              94        23287      5.49%   8793.06%
                              96        29461      6.95%   8800.01%
                              98        15141      3.57%   8803.58%
system.cpu0.IQ:residence:MemRead.overflows      5073513                      
system.cpu0.IQ:residence:MemRead.max_value        18874                      
system.cpu0.IQ:residence:MemRead.end_dist

system.cpu0.IQ:residence:MemWrite.start_dist
system.cpu0.IQ:residence:MemWrite.samples     24205525                      
system.cpu0.IQ:residence:MemWrite.min_value            1                      
                               0      2063019    852.29%    852.29%
                               2      4227435   1746.48%   2598.77%
                               4      2806279   1159.35%   3758.12%
                               6      2012068    831.24%   4589.37%
                               8      1564600    646.38%   5235.75%
                              10       942225    389.26%   5625.01%
                              12       829926    342.87%   5967.87%
                              14       733528    303.04%   6270.92%
                              16      1002674    414.23%   6685.15%
                              18      1066805    440.73%   7125.88%
                              20      1443261    596.25%   7722.13%
                              22      1704705    704.26%   8426.39%
                              24       933371    385.60%   8811.99%
                              26       249866    103.23%   8915.22%
                              28       169149     69.88%   8985.10%
                              30       118731     49.05%   9034.15%
                              32       149574     61.79%   9095.95%
                              34       155048     64.05%   9160.00%
                              36       172106     71.10%   9231.10%
                              38       142494     58.87%   9289.97%
                              40       140421     58.01%   9347.98%
                              42        99880     41.26%   9389.25%
                              44        91868     37.95%   9427.20%
                              46        54421     22.48%   9449.68%
                              48        41842     17.29%   9466.97%
                              50       141628     58.51%   9525.48%
                              52        48505     20.04%   9545.52%
                              54        30862     12.75%   9558.27%
                              56        29437     12.16%   9570.43%
                              58        21663      8.95%   9579.38%
                              60        28132     11.62%   9591.00%
                              62        57436     23.73%   9614.73%
                              64       120395     49.74%   9664.47%
                              66        14918      6.16%   9670.63%
                              68        13628      5.63%   9676.26%
                              70        16771      6.93%   9683.19%
                              72        19407      8.02%   9691.21%
                              74        17246      7.12%   9698.33%
                              76        23092      9.54%   9707.87%
                              78        35208     14.55%   9722.42%
                              80        27437     11.34%   9733.75%
                              82        13804      5.70%   9739.46%
                              84        11174      4.62%   9744.07%
                              86        10615      4.39%   9748.46%
                              88         7939      3.28%   9751.74%
                              90         6491      2.68%   9754.42%
                              92         7426      3.07%   9757.49%
                              94         8211      3.39%   9760.88%
                              96         6317      2.61%   9763.49%
                              98         4627      1.91%   9765.40%
system.cpu0.IQ:residence:MemWrite.overflows       567860                      
system.cpu0.IQ:residence:MemWrite.max_value        18879                      
system.cpu0.IQ:residence:MemWrite.end_dist

system.cpu0.IQ:residence:IprAccess.start_dist
system.cpu0.IQ:residence:IprAccess.samples      1814500                      
system.cpu0.IQ:residence:IprAccess.min_value            1                      
                               0       363612   2003.92%   2003.92%
                               2       308738   1701.50%   3705.43%
                               4       113140    623.53%   4328.96%
                               6       344922   1900.92%   6229.88%
                               8       276858   1525.81%   7755.69%
                              10        94796    522.44%   8278.13%
                              12        69863    385.03%   8663.15%
                              14        29563    162.93%   8826.08%
                              16        59241    326.49%   9152.57%
                              18        42166    232.38%   9384.95%
                              20        30402    167.55%   9552.50%
                              22        22584    124.46%   9676.96%
                              24         7814     43.06%   9720.03%
                              26         9838     54.22%   9774.25%
                              28        10446     57.57%   9831.82%
                              30         1559      8.59%   9840.41%
                              32         1799      9.91%   9850.32%
                              34         1915     10.55%   9860.88%
                              36         2649     14.60%   9875.48%
                              38         3053     16.83%   9892.30%
                              40          707      3.90%   9896.20%
                              42          415      2.29%   9898.48%
                              44         1145      6.31%   9904.79%
                              46          653      3.60%   9908.39%
                              48         1131      6.23%   9914.63%
                              50         1060      5.84%   9920.47%
                              52         1018      5.61%   9926.08%
                              54          705      3.89%   9929.96%
                              56          672      3.70%   9933.67%
                              58         2127     11.72%   9945.39%
                              60          512      2.82%   9948.21%
                              62          547      3.01%   9951.23%
                              64         1044      5.75%   9956.98%
                              66          229      1.26%   9958.24%
                              68          158      0.87%   9959.11%
                              70          351      1.93%   9961.05%
                              72          491      2.71%   9963.75%
                              74          365      2.01%   9965.76%
                              76          359      1.98%   9967.74%
                              78          750      4.13%   9971.88%
                              80          432      2.38%   9974.26%
                              82          257      1.42%   9975.67%
                              84          229      1.26%   9976.94%
                              86          792      4.36%   9981.30%
                              88          317      1.75%   9983.05%
                              90          549      3.03%   9986.07%
                              92          173      0.95%   9987.03%
                              94          124      0.68%   9987.71%
                              96           55      0.30%   9988.01%
                              98           88      0.48%   9988.50%
system.cpu0.IQ:residence:IprAccess.overflows         2087                      
system.cpu0.IQ:residence:IprAccess.max_value          244                      
system.cpu0.IQ:residence:IprAccess.end_dist

system.cpu0.IQ:residence:InstPrefetch.start_dist
system.cpu0.IQ:residence:InstPrefetch.samples            0                      
system.cpu0.IQ:residence:InstPrefetch.min_value            0                      
                               0            0                      
                               2            0                      
                               4            0                      
                               6            0                      
                               8            0                      
                              10            0                      
                              12            0                      
                              14            0                      
                              16            0                      
                              18            0                      
                              20            0                      
                              22            0                      
                              24            0                      
                              26            0                      
                              28            0                      
                              30            0                      
                              32            0                      
                              34            0                      
                              36            0                      
                              38            0                      
                              40            0                      
                              42            0                      
                              44            0                      
                              46            0                      
                              48            0                      
                              50            0                      
                              52            0                      
                              54            0                      
                              56            0                      
                              58            0                      
                              60            0                      
                              62            0                      
                              64            0                      
                              66            0                      
                              68            0                      
                              70            0                      
                              72            0                      
                              74            0                      
                              76            0                      
                              78            0                      
                              80            0                      
                              82            0                      
                              84            0                      
                              86            0                      
                              88            0                      
                              90            0                      
                              92            0                      
                              94            0                      
                              96            0                      
                              98            0                      
system.cpu0.IQ:residence:InstPrefetch.max_value            0                      
system.cpu0.IQ:residence:InstPrefetch.end_dist

system.cpu0.ISSUE:(null)_delay.start_dist 
system.cpu0.ISSUE:(null)_delay.samples           6162                      
system.cpu0.ISSUE:(null)_delay.min_value            1                      
                               0         5595   9079.84%   9079.84%
                               2          369    598.83%   9678.68%
                               4          103    167.15%   9845.83%
                               6           15     24.34%   9870.17%
                               8           61     98.99%   9969.17%
                              10            2      3.25%   9972.41%
                              12            2      3.25%   9975.66%
                              14            3      4.87%   9980.53%
                              16            6      9.74%   9990.26%
                              18            4      6.49%   9996.75%
                              20            1      1.62%   9998.38%
                              22            1      1.62%  10000.00%
                              24            0      0.00%  10000.00%
                              26            0      0.00%  10000.00%
                              28            0      0.00%  10000.00%
                              30            0      0.00%  10000.00%
                              32            0      0.00%  10000.00%
                              34            0      0.00%  10000.00%
                              36            0      0.00%  10000.00%
                              38            0      0.00%  10000.00%
                              40            0      0.00%  10000.00%
                              42            0      0.00%  10000.00%
                              44            0      0.00%  10000.00%
                              46            0      0.00%  10000.00%
                              48            0      0.00%  10000.00%
                              50            0      0.00%  10000.00%
                              52            0      0.00%  10000.00%
                              54            0      0.00%  10000.00%
                              56            0      0.00%  10000.00%
                              58            0      0.00%  10000.00%
                              60            0      0.00%  10000.00%
                              62            0      0.00%  10000.00%
                              64            0      0.00%  10000.00%
                              66            0      0.00%  10000.00%
                              68            0      0.00%  10000.00%
                              70            0      0.00%  10000.00%
                              72            0      0.00%  10000.00%
                              74            0      0.00%  10000.00%
                              76            0      0.00%  10000.00%
                              78            0      0.00%  10000.00%
                              80            0      0.00%  10000.00%
                              82            0      0.00%  10000.00%
                              84            0      0.00%  10000.00%
                              86            0      0.00%  10000.00%
                              88            0      0.00%  10000.00%
                              90            0      0.00%  10000.00%
                              92            0      0.00%  10000.00%
                              94            0      0.00%  10000.00%
                              96            0      0.00%  10000.00%
                              98            0      0.00%  10000.00%
system.cpu0.ISSUE:(null)_delay.max_value           23                      
system.cpu0.ISSUE:(null)_delay.end_dist

system.cpu0.ISSUE:IntAlu_delay.start_dist 
system.cpu0.ISSUE:IntAlu_delay.samples      100468803                      
system.cpu0.ISSUE:IntAlu_delay.min_value            0                      
                               0     88552588   8813.94%   8813.94%
                               2      5656551    563.02%   9376.95%
                               4      2048668    203.91%   9580.87%
                               6       855381     85.14%   9666.00%
                               8       548329     54.58%   9720.58%
                              10       348133     34.65%   9755.23%
                              12       340473     33.89%   9789.12%
                              14       728282     72.49%   9861.61%
                              16       533954     53.15%   9914.76%
                              18       300192     29.88%   9944.63%
                              20       293998     29.26%   9973.90%
                              22       253039     25.19%   9999.08%
                              24         9215      0.92%  10000.00%
                              26            0      0.00%  10000.00%
                              28            0      0.00%  10000.00%
                              30            0      0.00%  10000.00%
                              32            0      0.00%  10000.00%
                              34            0      0.00%  10000.00%
                              36            0      0.00%  10000.00%
                              38            0      0.00%  10000.00%
                              40            0      0.00%  10000.00%
                              42            0      0.00%  10000.00%
                              44            0      0.00%  10000.00%
                              46            0      0.00%  10000.00%
                              48            0      0.00%  10000.00%
                              50            0      0.00%  10000.00%
                              52            0      0.00%  10000.00%
                              54            0      0.00%  10000.00%
                              56            0      0.00%  10000.00%
                              58            0      0.00%  10000.00%
                              60            0      0.00%  10000.00%
                              62            0      0.00%  10000.00%
                              64            0      0.00%  10000.00%
                              66            0      0.00%  10000.00%
                              68            0      0.00%  10000.00%
                              70            0      0.00%  10000.00%
                              72            0      0.00%  10000.00%
                              74            0      0.00%  10000.00%
                              76            0      0.00%  10000.00%
                              78            0      0.00%  10000.00%
                              80            0      0.00%  10000.00%
                              82            0      0.00%  10000.00%
                              84            0      0.00%  10000.00%
                              86            0      0.00%  10000.00%
                              88            0      0.00%  10000.00%
                              90            0      0.00%  10000.00%
                              92            0      0.00%  10000.00%
                              94            0      0.00%  10000.00%
                              96            0      0.00%  10000.00%
                              98            0      0.00%  10000.00%
system.cpu0.ISSUE:IntAlu_delay.max_value           24                      
system.cpu0.ISSUE:IntAlu_delay.end_dist

system.cpu0.ISSUE:IntMult_delay.start_dist
system.cpu0.ISSUE:IntMult_delay.samples        390318                      
system.cpu0.ISSUE:IntMult_delay.min_value            0                      
                               0       293575   7521.43%   7521.43%
                               2        48436   1240.94%   8762.37%
                               4        23559    603.58%   9365.95%
                               6         6915    177.16%   9543.12%
                               8         1534     39.30%   9582.42%
                              10         1953     50.04%   9632.45%
                              12         1528     39.15%   9671.60%
                              14         2118     54.26%   9725.86%
                              16          210      5.38%   9731.24%
                              18         3777     96.77%   9828.01%
                              20         3910    100.17%   9928.19%
                              22         2803     71.81%  10000.00%
                              24            0      0.00%  10000.00%
                              26            0      0.00%  10000.00%
                              28            0      0.00%  10000.00%
                              30            0      0.00%  10000.00%
                              32            0      0.00%  10000.00%
                              34            0      0.00%  10000.00%
                              36            0      0.00%  10000.00%
                              38            0      0.00%  10000.00%
                              40            0      0.00%  10000.00%
                              42            0      0.00%  10000.00%
                              44            0      0.00%  10000.00%
                              46            0      0.00%  10000.00%
                              48            0      0.00%  10000.00%
                              50            0      0.00%  10000.00%
                              52            0      0.00%  10000.00%
                              54            0      0.00%  10000.00%
                              56            0      0.00%  10000.00%
                              58            0      0.00%  10000.00%
                              60            0      0.00%  10000.00%
                              62            0      0.00%  10000.00%
                              64            0      0.00%  10000.00%
                              66            0      0.00%  10000.00%
                              68            0      0.00%  10000.00%
                              70            0      0.00%  10000.00%
                              72            0      0.00%  10000.00%
                              74            0      0.00%  10000.00%
                              76            0      0.00%  10000.00%
                              78            0      0.00%  10000.00%
                              80            0      0.00%  10000.00%
                              82            0      0.00%  10000.00%
                              84            0      0.00%  10000.00%
                              86            0      0.00%  10000.00%
                              88            0      0.00%  10000.00%
                              90            0      0.00%  10000.00%
                              92            0      0.00%  10000.00%
                              94            0      0.00%  10000.00%
                              96            0      0.00%  10000.00%
                              98            0      0.00%  10000.00%
system.cpu0.ISSUE:IntMult_delay.max_value           23                      
system.cpu0.ISSUE:IntMult_delay.end_dist

system.cpu0.ISSUE:IntDiv_delay.start_dist 
system.cpu0.ISSUE:IntDiv_delay.samples              0                      
system.cpu0.ISSUE:IntDiv_delay.min_value            0                      
                               0            0                      
                               2            0                      
                               4            0                      
                               6            0                      
                               8            0                      
                              10            0                      
                              12            0                      
                              14            0                      
                              16            0                      
                              18            0                      
                              20            0                      
                              22            0                      
                              24            0                      
                              26            0                      
                              28            0                      
                              30            0                      
                              32            0                      
                              34            0                      
                              36            0                      
                              38            0                      
                              40            0                      
                              42            0                      
                              44            0                      
                              46            0                      
                              48            0                      
                              50            0                      
                              52            0                      
                              54            0                      
                              56            0                      
                              58            0                      
                              60            0                      
                              62            0                      
                              64            0                      
                              66            0                      
                              68            0                      
                              70            0                      
                              72            0                      
                              74            0                      
                              76            0                      
                              78            0                      
                              80            0                      
                              82            0                      
                              84            0                      
                              86            0                      
                              88            0                      
                              90            0                      
                              92            0                      
                              94            0                      
                              96            0                      
                              98            0                      
system.cpu0.ISSUE:IntDiv_delay.max_value            0                      
system.cpu0.ISSUE:IntDiv_delay.end_dist

system.cpu0.ISSUE:FloatAdd_delay.start_dist
system.cpu0.ISSUE:FloatAdd_delay.samples         7304                      
system.cpu0.ISSUE:FloatAdd_delay.min_value            0                      
                               0         3769   5160.19%   5160.19%
                               2          246    336.80%   5496.99%
                               4           39     53.40%   5550.38%
                               6          254    347.75%   5898.14%
                               8           86    117.74%   6015.88%
                              10          381    521.63%   6537.51%
                              12          508    695.51%   7233.02%
                              14         1147   1570.37%   8803.40%
                              16          874   1196.60%  10000.00%
                              18            0      0.00%  10000.00%
                              20            0      0.00%  10000.00%
                              22            0      0.00%  10000.00%
                              24            0      0.00%  10000.00%
                              26            0      0.00%  10000.00%
                              28            0      0.00%  10000.00%
                              30            0      0.00%  10000.00%
                              32            0      0.00%  10000.00%
                              34            0      0.00%  10000.00%
                              36            0      0.00%  10000.00%
                              38            0      0.00%  10000.00%
                              40            0      0.00%  10000.00%
                              42            0      0.00%  10000.00%
                              44            0      0.00%  10000.00%
[...]
system.cpu1.kern.mode_good_interrupt                0                      
system.cpu1.kern.mode_switch_kernel             47903                      
system.cpu1.kern.mode_switch_user                1699                      
system.cpu1.kern.mode_switch_idle                   0                      
system.cpu1.kern.mode_switch_interrupt              0                      
system.cpu1.kern.mode_switch_good            0.068485                      
system.cpu1.kern.mode_switch_good_kernel     0.035447                      
system.cpu1.kern.mode_switch_good_user              1                      
system.cpu1.kern.mode_switch_good_idle   <err: div-0>                      
system.cpu1.kern.mode_switch_good_interrupt <err: div-0>                      
system.cpu1.kern.mode_ticks_kernel         2702448019     99.74%     99.74%
system.cpu1.kern.mode_ticks_user              7126172      0.26%    100.00%
system.cpu1.kern.mode_ticks_idle                    0      0.00%    100.00%
system.cpu1.kern.mode_ticks_interrupt               0      0.00%    100.00%
system.cpu1.kern.swap_context                    2374                      
system.cpu1.kern.syscall                          520                      
system.cpu1.kern.syscall_fork                       2      0.38%      0.38%
system.cpu1.kern.syscall_read                      28      5.38%      5.77%
system.cpu1.kern.syscall_write                    234     45.00%     50.77%
system.cpu1.kern.syscall_close                     21      4.04%     54.81%
system.cpu1.kern.syscall_chmod                      1      0.19%     55.00%
system.cpu1.kern.syscall_obreak                    33      6.35%     61.35%
system.cpu1.kern.syscall_lseek                      4      0.77%     62.12%
system.cpu1.kern.syscall_getpid                     4      0.77%     62.88%
system.cpu1.kern.syscall_setuid                     3      0.58%     63.46%
system.cpu1.kern.syscall_getuid                     7      1.35%     64.81%
system.cpu1.kern.syscall_open                      43      8.27%     73.08%
system.cpu1.kern.syscall_getgid                     7      1.35%     74.42%
system.cpu1.kern.syscall_sigprocmask                4      0.77%     75.19%
system.cpu1.kern.syscall_ioctl                      9      1.73%     76.92%
system.cpu1.kern.syscall_readlink                   2      0.38%     77.31%
system.cpu1.kern.syscall_execve                     2      0.38%     77.69%
system.cpu1.kern.syscall_pre_F64_stat              19      3.65%     81.35%
system.cpu1.kern.syscall_pre_F64_lstat              1      0.19%     81.54%
system.cpu1.kern.syscall_mmap                      41      7.88%     89.42%
system.cpu1.kern.syscall_munmap                     3      0.58%     90.00%
system.cpu1.kern.syscall_mprotect                  11      2.12%     92.12%
system.cpu1.kern.syscall_gethostname                1      0.19%     92.31%
system.cpu1.kern.syscall_dup2                       1      0.19%     92.50%
system.cpu1.kern.syscall_pre_F64_fstat             20      3.85%     96.35%
system.cpu1.kern.syscall_fcntl                      7      1.35%     97.69%
system.cpu1.kern.syscall_select                     6      1.15%     98.85%
system.cpu1.kern.syscall_setgid                     3      0.58%     99.42%
system.cpu1.kern.syscall_getrlimit                  1      0.19%     99.62%
system.cpu1.kern.syscall_getsysinfo                 1      0.19%     99.81%
system.cpu1.kern.syscall_setsysinfo                 1      0.19%    100.00%
system.cpu1.numCycles                      2709328495                      
system.cpu1inst_class_dist.start_dist
                   All ops ready            0      0.00%           
                One op not ready            0      0.00%           
           None rdy, mult chains            0      0.00%           
           None rdy, one chained            0      0.00%           
        None rdy, all self-timed            0      0.00%           
system.cpu1inst_class_dist.end_dist
system.htbus.addr_idle_cycles              2708536448                      
system.htbus.addr_idle_fraction              0.999616                      
system.htbus.addr_queued                    27.153942                      
system.htbus.addr_queued_cycles               5341832                      
system.htbus.addr_requests                     196724                      
system.htbus.bus_blocked                            0                      
system.htbus.bus_blocked_cycles                     0                      
system.htbus.bus_blocked_fraction                   0                      
system.htbus.data_idle_cycles              2708446976                      
system.htbus.data_idle_fraction              0.999583                      
system.htbus.data_queued                            1                      
system.htbus.data_queued_cycles                 45302                      
system.htbus.data_requests                      45302                      
system.htbus.null_grants                            0                      
system.kern.fnCalls                                 0                      
system.l2.avg_blocked_cycles_no_mshrs    <err: div-0>                      
system.l2.avg_blocked_cycles_no_targets  <err: div-0>                      
system.l2.avg_refs                           2.450260                      
system.l2.blocked_no_mshrs                          0                      
system.l2.blocked_no_targets                        0                      
system.l2.blocked_cycles_no_mshrs                   0                      
system.l2.blocked_cycles_no_targets                 0                      
system.l2.cache_copies                              0                      
system.l2.demand_accesses                     2971959                      
system.l2.demand_avg_miss_latency           64.414262                      
system.l2.demand_avg_mshr_miss_latency      34.481476                      
system.l2.demand_hits                         1927583                      
system.l2.demand_miss_latency                67272709                      
system.l2.demand_miss_rate                   0.351410                      
system.l2.demand_misses                       1044376                      
system.l2.demand_mshr_hits                          1                      
system.l2.demand_mshr_miss_latency           36011592                      
system.l2.demand_mshr_miss_rate              0.351410                      
system.l2.demand_mshr_misses                  1044375                      
system.l2.fast_writes                               0                      
system.l2.mshr_cap_events                           0                      
system.l2.no_allocate_misses                        0                      
system.l2.overall_accesses                    3672985                      
system.l2.overall_avg_miss_latency          64.400079                      
system.l2.overall_avg_mshr_miss_latency     34.481476                      
system.l2.overall_avg_mshr_uncacheable_latency   119.040713                      
system.l2.overall_hits                        2628379                      
system.l2.overall_miss_latency               67272709                      
system.l2.overall_miss_rate                  0.284402                      
system.l2.overall_misses                      1044606                      
system.l2.overall_mshr_hits                         1                      
system.l2.overall_mshr_miss_latency          36011592                      
system.l2.overall_mshr_miss_rate             0.284340                      
system.l2.overall_mshr_misses                 1044375                      
system.l2.overall_mshr_uncacheable_latency     11753961                      
system.l2.overall_mshr_uncacheable_misses        98739                      
system.l2.prefetcher.num_hwpf_already_in_cache            0                      
system.l2.prefetcher.num_hwpf_already_in_mshr            0                      
system.l2.prefetcher.num_hwpf_already_in_prefetcher            0                      
system.l2.prefetcher.num_hwpf_evicted               0                      
system.l2.prefetcher.num_hwpf_identified            0                      
system.l2.prefetcher.num_hwpf_issued                0                      
system.l2.prefetcher.num_hwpf_removed_MSHR_hit            0                      
system.l2.prefetcher.num_hwpf_span_page             0                      
system.l2.prefetcher.num_hwpf_squashed_from_miss            0                      
system.l2.readEx_accesses                      439144                      
system.l2.readEx_avg_miss_latency           61.339248                      
system.l2.readEx_avg_mshr_miss_latency      31.573887                      
system.l2.readEx_hits                          290857                      
system.l2.readEx_miss_latency                 9095813                      
system.l2.readEx_miss_rate                   0.337673                      
system.l2.readEx_misses                        148287                      
system.l2.readEx_mshr_miss_latency            4681997                      
system.l2.readEx_mshr_miss_rate              0.337673                      
system.l2.readEx_mshr_misses                   148287                      
system.l2.read_accesses                       2971959                      
system.l2.read_avg_miss_latency             64.414262                      
system.l2.read_avg_mshr_miss_latency        34.481476                      
system.l2.read_avg_mshr_uncacheable_latency   140.187241                      
system.l2.read_hits                           1927583                      
system.l2.read_miss_latency                  67272709                      
system.l2.read_miss_rate                     0.351410                      
system.l2.read_misses                         1044376                      
system.l2.read_mshr_hits                            1                      
system.l2.read_mshr_miss_latency             36011592                      
system.l2.read_mshr_miss_rate                0.351410                      
system.l2.read_mshr_misses                    1044375                      
system.l2.read_mshr_uncacheable                 46977                      
system.l2.read_mshr_uncacheable_latency       6585576                      
system.l2.replacements                        1158251                      
system.l2.sampled_refs                        1190514                      
system.l2.soft_prefetch_mshr_full                   0                      
system.l2.tagsinuse                      31783.065825                      
system.l2.total_refs                          2917069                      
system.l2.warmup_cycle                        3481296                      
system.l2.write_avg_mshr_uncacheable_latency    99.849021                      
system.l2.write_mshr_uncacheable                51762                      
system.l2.write_mshr_uncacheable_latency      5168385                      
system.l2.writeback_accesses                   701026                      
system.l2.writeback_hits                       700796                      
system.l2.writeback_miss_rate                0.000328                      
system.l2.writeback_misses                        230                      
system.l2.writeback_mshr_miss_rate           0.000328                      
system.l2.writeback_mshr_misses                   230                      
system.l2.writebacks                           151852                      
system.l2bus.addr_idle_cycles              2705127698                      
system.l2bus.addr_idle_fraction              0.998358                      
system.l2bus.addr_queued                     4.048722                      
system.l2bus.addr_queued_cycles              17997137                      
system.l2bus.addr_requests                    4445140                      
system.l2bus.bus_blocked                          284                      
system.l2bus.bus_blocked_cycles                122238                      
system.l2bus.bus_blocked_fraction            0.000045                      
system.l2bus.data_idle_cycles              2705298686                      
system.l2bus.data_idle_fraction              0.998422                      
system.l2bus.data_queued                     1.016059                      
system.l2bus.data_queued_cycles               3580819                      
system.l2bus.data_requests                    3524225                      
system.l2bus.null_grants                        41224                      
system.membus.addr_idle_cycles             2707966430                      
system.membus.addr_idle_fraction             0.999406                      
system.membus.addr_queued                   28.633398                      
system.membus.addr_queued_cycles             45962474                      
system.membus.addr_requests                   1605205                      
system.membus.bus_blocked                           0                      
system.membus.bus_blocked_cycles                    0                      
system.membus.bus_blocked_fraction                  0                      
system.membus.data_idle_cycles             2703873568                      
system.membus.data_idle_fraction             0.997896                      
system.membus.data_queued                    2.198062                      
system.membus.data_queued_cycles              2725313                      
system.membus.data_requests                   1239871                      
system.membus.null_grants                           0                      
system.pcibus.addr_idle_cycles             2708315508                      
system.pcibus.addr_idle_fraction             0.999535                      
system.pcibus.addr_queued                  254.488400                      
system.pcibus.addr_queued_cycles             50063976                      
system.pcibus.addr_requests                    196724                      
system.pcibus.bus_blocked                        3430                      
system.pcibus.bus_blocked_cycles                37727                      
system.pcibus.bus_blocked_fraction           0.000014                      
system.pcibus.data_idle_cycles             2707720026                      
system.pcibus.data_idle_fraction             0.999315                      
system.pcibus.data_queued                    2.030617                      
system.pcibus.data_queued_cycles                91991                      
system.pcibus.data_requests                     45302                      
system.pcibus.null_grants                           0                      
system.ram.accesses                           1399840                      
system.ram.bytes_requested                          0                      
system.ram.bytes_sent                               0                      
system.ram.compressed_responses                     0                      
system.tsunami.etherdev0.coalescedRxDesc <err: div-0>                      
system.tsunami.etherdev0.coalescedRxIdle <err: div-0>                      
system.tsunami.etherdev0.coalescedRxOk   <err: div-0>                      
system.tsunami.etherdev0.coalescedRxOrn  <err: div-0>                      
system.tsunami.etherdev0.coalescedSwi    <err: div-0>                      
system.tsunami.etherdev0.coalescedTotal  <err: div-0>                      
system.tsunami.etherdev0.coalescedTxDesc <err: div-0>                      
system.tsunami.etherdev0.coalescedTxIdle <err: div-0>                      
system.tsunami.etherdev0.coalescedTxOk   <err: div-0>                      
system.tsunami.etherdev0.descDMAReads               0                      
system.tsunami.etherdev0.descDMAWrites              0                      
system.tsunami.etherdev0.descDmaReadBytes            0                      
system.tsunami.etherdev0.descDmaWriteBytes            0                      
system.tsunami.etherdev0.dma.avg_large_transaction_latency <err: div-0>                      
system.tsunami.etherdev0.dma.avg_small_transaction_latency <err: div-0>                      
system.tsunami.etherdev0.dma.avg_transaction_latency <err: div-0>                      
system.tsunami.etherdev0.dma.bytes_transfered            0                      
system.tsunami.etherdev0.dma.large_transaction_latency            0                      
system.tsunami.etherdev0.dma.large_transactions            0                      
system.tsunami.etherdev0.dma.packets_sent            0                      
system.tsunami.etherdev0.dma.requests               0                      
system.tsunami.etherdev0.dma.round_trip_latency <err: div-0>                      
system.tsunami.etherdev0.dma.small_transaction_latency            0                      
system.tsunami.etherdev0.dma.small_transactions            0                      
system.tsunami.etherdev0.dma.total_cycle_latency            0                      
system.tsunami.etherdev0.dma.transaction_latency            0                      
system.tsunami.etherdev0.droppedPackets             0                      
system.tsunami.etherdev0.postedInterrupts            0                      
system.tsunami.etherdev0.postedRxDesc               0                      
system.tsunami.etherdev0.postedRxIdle               0                      
system.tsunami.etherdev0.postedRxOk                 0                      
system.tsunami.etherdev0.postedRxOrn                0                      
system.tsunami.etherdev0.postedSwi                  0                      
system.tsunami.etherdev0.postedTxDesc               0                      
system.tsunami.etherdev0.postedTxIdle               0                      
system.tsunami.etherdev0.postedTxOk                 0                      
system.tsunami.etherdev0.totalRxDesc                0                      
system.tsunami.etherdev0.totalRxIdle                0                      
system.tsunami.etherdev0.totalRxOk                  0                      
system.tsunami.etherdev0.totalRxOrn                 0                      
system.tsunami.etherdev0.totalSwi                   0                      
system.tsunami.etherdev0.totalTxDesc                0                      
system.tsunami.etherdev0.totalTxIdle                0                      
system.tsunami.etherdev0.totalTxOk                  0                      
system.tsunami.ide.dma.avg_large_transaction_latency  1886.763810                      
system.tsunami.ide.dma.avg_small_transaction_latency   138.111111                      
system.tsunami.ide.dma.avg_transaction_latency  1377.035088                      
system.tsunami.ide.dma.bytes_transfered       3525424                      
system.tsunami.ide.dma.large_transaction_latency       990551                      
system.tsunami.ide.dma.large_transactions          525                      
system.tsunami.ide.dma.packets_sent             55096                      
system.tsunami.ide.dma.requests                   741                      
system.tsunami.ide.dma.round_trip_latency  1082.565449                      
system.tsunami.ide.dma.small_transaction_latency        29832                      
system.tsunami.ide.dma.small_transactions          216                      
system.tsunami.ide.dma.total_cycle_latency     59645026                      
system.tsunami.ide.dma.transaction_latency      1020383                      

---------- End Simulation Statistics   ----------
