system.cpu0.POWER.DYNAMIC:bpred_block_average     0.287984                      
system.cpu0.POWER.DYNAMIC:dcache_block_average     0.707712                      
system.cpu0.POWER.DYNAMIC:dtlb_block_average     0.008198                      
system.cpu0.POWER.DYNAMIC:fpalu_block_average     0.191694                      
system.cpu0.POWER.DYNAMIC:fpmap_block_average     0.021896                      
system.cpu0.POWER.DYNAMIC:fpmul_block_average     0.191664                      
system.cpu0.POWER.DYNAMIC:fpq_block_average     0.115350                      
system.cpu0.POWER.DYNAMIC:fpreg_block_average     0.073278                      
system.cpu0.POWER.DYNAMIC:icache_block_average     0.601444                      
system.cpu0.POWER.DYNAMIC:intalu_block_average     0.672800                      
system.cpu0.POWER.DYNAMIC:intmap_block_average     0.034300                      
system.cpu0.POWER.DYNAMIC:intq_block_average     0.255438                      
system.cpu0.POWER.DYNAMIC:intreg_block_average     0.255977                      
system.cpu0.POWER.DYNAMIC:itlb_block_average     0.006967                      
system.cpu0.POWER.DYNAMIC:lsq_block_average     0.091831                      



---------- Begin Simulation Statistics ----------
host_inst_rate                                  34404                      
host_mem_usage                                 195060                      
host_seconds                                  3433.57                      
host_tick_rate                                 157066                      
sim_freq                                    200000000                      
sim_insts                                   118127189                      
sim_seconds                                  2.696480                      
sim_ticks                                   539296031                      
system.cpu0.COM:IPB                          5.619651                      
system.cpu0.COM:IPC                          0.219040                      
system.cpu0.COM:branches                     21020378                      
system.cpu0.COM:bw_lim_avg               <err: div-0>                      
system.cpu0.COM:bw_lim_events                       0                      
system.cpu0.COM:bw_lim_rate                    0.0000                      
system.cpu0.COM:bw_lim_stdev_0_mean      <err: div-0>                      
system.cpu0.COM:bw_lim_stdev_0_stdev     <err: div-0>                      
**Ignore: system.cpu0.COM:bw_lim_stdev_0_TOT       0.0000                      
system.cpu0.COM:bw_limited                          0                      
system.cpu0.COM:committed_per_cycle.start_dist
system.cpu0.COM:committed_per_cycle.samples     41053694                      
system.cpu0.COM:committed_per_cycle.min_value            0                      
                               0       394636     96.13%           
                               1      9878949   2406.35%           
                               2      5730561   1395.87%           
                               3      3199535    779.35%           
                               4     21850013   5322.30%           
system.cpu0.COM:committed_per_cycle.max_value            4                      
system.cpu0.COM:committed_per_cycle.end_dist

system.cpu0.COM:count                       118127189                      
system.cpu0.COM:loads                        17167674                      
system.cpu0.COM:membars                        302857                      
system.cpu0.COM:refs                         27972151                      
system.cpu0.COM:stores                       10804477                      
system.cpu0.COM:swp_count                      211539                      
system.cpu0.DDQ:count                      8571183221                      
system.cpu0.DDQ:rate                               16                      
system.cpu0.DIS:chain_creation.start_dist
     Inst has no outstanding IDEPS            0      0.00%           
      IDEP chain reached max depth            0      0.00%           
                    Inst is a load            0      0.00%           
  Chain has multiple chained IDEPS            0      0.00%           
system.cpu0.DIS:chain_creation.end_dist
system.cpu0.DIS:chain_head_frac                     0                      
system.cpu0.DIS:chain_heads                         0                      
system.cpu0.DIS:chains_insuf                        0                      
system.cpu0.DIS:chains_insuf_rate                   0                      
system.cpu0.DIS:count                       139494359                      
system.cpu0.DIS:insufficient_chains                 0                      
system.cpu0.DIS:mod_n_stall_avg_free     <err: div-0>                      
system.cpu0.DIS:mod_n_stall_frac                    0                      
system.cpu0.DIS:mod_n_stall_free                    0                      
system.cpu0.DIS:mod_n_stalls                        0                      
system.cpu0.DIS:one_rdy_insts                       0                      
system.cpu0.DIS:one_rdy_ratio            <err: div-0>                      
system.cpu0.DIS:op_count                    173170914                      
system.cpu0.DIS:op_rate                      0.321105                      
system.cpu0.DIS:rate                         0.258660                      
system.cpu0.DIS:second_choice_clust                 0                      
system.cpu0.DIS:second_choice_stall                 0                      
system.cpu0.DIS:serialize_stall_cycles        9367588                      
system.cpu0.DIS:serializing_insts              289899                      
system.cpu0.DIS:two_input_insts                     0                      
system.cpu0.DIS:two_input_ratio                     0                      
system.cpu0.FETCH:branch_count               38494976                      
system.cpu0.FETCH:branch_rate                0.071380                      
system.cpu0.FETCH:chance_pct                        1                      
system.cpu0.FETCH:chances                    57803741                      
system.cpu0.FETCH:choice                     57803741                      
system.cpu0.FETCH:count                     201240086                      
system.cpu0.FETCH:decisions                  57803741                      
system.cpu0.FETCH:idle_cycles               481492291                      
system.cpu0.FETCH:idle_icache_blocked_cycles            0                      
system.cpu0.FETCH:idle_rate                     89.28                      
system.cpu0.FETCH:prio_changes                      0                      
system.cpu0.FETCH:rate                       0.373153                      
system.cpu0.FETCH:rate_dist.start_dist    
system.cpu0.FETCH:rate_dist.samples          57803741                      
system.cpu0.FETCH:rate_dist.min_value               0                      
                               0       175803     30.41%           
                               1      5500487    951.58%           
                               2      2848347    492.76%           
                               3      7073511   1223.71%           
                               4     42205593   7301.53%           
system.cpu0.FETCH:rate_dist.max_value               4                      
system.cpu0.FETCH:rate_dist.end_dist

system.cpu0.FETCH:rate_dist_0.start_dist  
system.cpu0.FETCH:rate_dist_0.samples        57803741                      
system.cpu0.FETCH:rate_dist_0.min_value             0                      
                               0       175803     30.41%           
                               1      5500487    951.58%           
                               2      2848347    492.76%           
                               3      7073511   1223.71%           
                               4     42205593   7301.53%           
system.cpu0.FETCH:rate_dist_0.max_value             4                      
system.cpu0.FETCH:rate_dist_0.end_dist

system.cpu0.IFQ:count                      3650052160                      
system.cpu0.IFQ:full_count                  105043084                      
system.cpu0.IFQ:full_rate                   19.477815                      
system.cpu0.IFQ:latency                     26.166307                      
system.cpu0.IFQ:occupancy                    6.768179                      
system.cpu0.IFQ:qfull_iq_occ               5088359037                      
system.cpu0.IFQ:qfull_iq_occ_dist_0.start_dist
system.cpu0.IFQ:qfull_iq_occ_dist_0.samples     86628446                      
system.cpu0.IFQ:qfull_iq_occ_dist_0.min_value            0                      
                               0      5645011    651.63%           
                              10       753572     86.99%           
                              20       646139     74.59%           
                              30       695187     80.25%           
                              40       825413     95.28%           
                              50       743653     85.84%           
                              60     77319471   8925.41%           
system.cpu0.IFQ:qfull_iq_occ_dist_0.max_value           64                      
system.cpu0.IFQ:qfull_iq_occ_dist_0.end_dist

system.cpu0.IFQ:qfull_rob_occ              7879080904                      
system.cpu0.IFQ:qfull_rob_occ_dist_0.start_dist
system.cpu0.IFQ:qfull_rob_occ_dist_0.samples     86628446                      
system.cpu0.IFQ:qfull_rob_occ_dist_0.min_value            1                      
                               0      1249337    144.22%           
                              10      1776196    205.04%           
                              20      1224847    141.39%           
                              30       459403     53.03%           
                              40       283261     32.70%           
                              50       204300     23.58%           
                              60      5627621    649.63%           
                              70      1402339    161.88%           
                              80       581050     67.07%           
                              90     69968105   8076.80%           
                             100       752438     86.86%           
                             110       941160    108.64%           
                             120      2158389    249.15%           
                             130            0      0.00%           
system.cpu0.IFQ:qfull_rob_occ_dist_0.max_value          128                      
system.cpu0.IFQ:qfull_rob_occ_dist_0.end_dist

system.cpu0.IQ:cap_events                           0                      
system.cpu0.IQ:cap_inst                             0                      
system.cpu0.IQ:residence:(null).start_dist
system.cpu0.IQ:residence:(null).samples          9062                      
system.cpu0.IQ:residence:(null).min_value            1                      
                               0         8120   8960.49%   8960.49%
                               2          620    684.18%   9644.67%
                               4          145    160.01%   9804.68%
                               6           29     32.00%   9836.68%
                               8          125    137.94%   9974.62%
                              10            2      2.21%   9976.83%
                              12            3      3.31%   9980.14%
                              14            2      2.21%   9982.34%
                              16           10     11.04%   9993.38%
                              18            4      4.41%   9997.79%
                              20            2      2.21%  10000.00%
                              22            0      0.00%  10000.00%
                              24            0      0.00%  10000.00%
                              26            0      0.00%  10000.00%
                              28            0      0.00%  10000.00%
                              30            0      0.00%  10000.00%
                              32            0      0.00%  10000.00%
                              34            0      0.00%  10000.00%
                              36            0      0.00%  10000.00%
                              38            0      0.00%  10000.00%
                              40            0      0.00%  10000.00%
                              42            0      0.00%  10000.00%
                              44            0      0.00%  10000.00%
                              46            0      0.00%  10000.00%
                              48            0      0.00%  10000.00%
                              50            0      0.00%  10000.00%
                              52            0      0.00%  10000.00%
                              54            0      0.00%  10000.00%
                              56            0      0.00%  10000.00%
                              58            0      0.00%  10000.00%
                              60            0      0.00%  10000.00%
                              62            0      0.00%  10000.00%
                              64            0      0.00%  10000.00%
                              66            0      0.00%  10000.00%
                              68            0      0.00%  10000.00%
                              70            0      0.00%  10000.00%
                              72            0      0.00%  10000.00%
                              74            0      0.00%  10000.00%
                              76            0      0.00%  10000.00%
                              78            0      0.00%  10000.00%
                              80            0      0.00%  10000.00%
                              82            0      0.00%  10000.00%
                              84            0      0.00%  10000.00%
                              86            0      0.00%  10000.00%
                              88            0      0.00%  10000.00%
                              90            0      0.00%  10000.00%
                              92            0      0.00%  10000.00%
                              94            0      0.00%  10000.00%
                              96            0      0.00%  10000.00%
                              98            0      0.00%  10000.00%
system.cpu0.IQ:residence:(null).max_value           21                      
system.cpu0.IQ:residence:(null).end_dist

system.cpu0.IQ:residence:IntAlu.start_dist
system.cpu0.IQ:residence:IntAlu.samples      95348830                      
system.cpu0.IQ:residence:IntAlu.min_value            1                      
                               0     23289584   2442.57%   2442.57%
                               2     20603715   2160.88%   4603.44%
                               4      6485383    680.17%   5283.62%
                               6      5201987    545.57%   5829.19%
                               8      4121482    432.25%   6261.45%
                              10      2936294    307.95%   6569.40%
                              12      2424698    254.30%   6823.70%
                              14      2892745    303.39%   7127.08%
                              16      3711847    389.29%   7516.37%
                              18      2532645    265.62%   7781.99%
                              20      2607495    273.47%   8055.46%
                              22      3011432    315.83%   8371.29%
                              24      1742565    182.76%   8554.05%
                              26       974801    102.24%   8656.29%
                              28       605972     63.55%   8719.84%
                              30       596826     62.59%   8782.43%
                              32       536069     56.22%   8838.65%
                              34       462870     48.54%   8887.20%
                              36       566578     59.42%   8946.62%
                              38       512405     53.74%   9000.36%
                              40       444714     46.64%   9047.00%
                              42       341825     35.85%   9082.85%
                              44       354948     37.23%   9120.08%
                              46       309560     32.47%   9152.54%
                              48       256734     26.93%   9179.47%
                              50       252677     26.50%   9205.97%
                              52       248749     26.09%   9232.06%
                              54       260621     27.33%   9259.39%
                              56       114042     11.96%   9271.35%
                              58       134446     14.10%   9285.45%
                              60       120940     12.68%   9298.14%
                              62       211932     22.23%   9320.36%
                              64       130199     13.66%   9334.02%
                              66       107476     11.27%   9345.29%
                              68       108284     11.36%   9356.65%
                              70        68223      7.16%   9363.80%
                              72        73611      7.72%   9371.52%
                              74        63840      6.70%   9378.22%
                              76        88101      9.24%   9387.46%
                              78       100586     10.55%   9398.01%
                              80        48685      5.11%   9403.11%
                              82        50893      5.34%   9408.45%
                              84        53814      5.64%   9414.09%
                              86        59787      6.27%   9420.37%
                              88        79945      8.38%   9428.75%
                              90        82814      8.69%   9437.44%
                              92        44652      4.68%   9442.12%
                              94        42654      4.47%   9446.59%
                              96        27857      2.92%   9449.51%
                              98        52197      5.47%   9454.99%
system.cpu0.IQ:residence:IntAlu.overflows      5196631                      
system.cpu0.IQ:residence:IntAlu.max_value        18879                      
system.cpu0.IQ:residence:IntAlu.end_dist

system.cpu0.IQ:residence:IntMult.start_dist
system.cpu0.IQ:residence:IntMult.samples       385616                      
system.cpu0.IQ:residence:IntMult.min_value            1                      
                               0         4923    127.67%    127.67%
                               2         3679     95.41%    223.07%
                               4         9716    251.96%    475.03%
                               6         7156    185.57%    660.61%
                               8         8116    210.47%    871.07%
                              10         7098    184.07%   1055.14%
                              12         6792    176.13%   1231.28%
                              14        10639    275.90%   1507.17%
                              16         6967    180.67%   1687.84%
                              18        19472    504.96%   2192.80%
                              20        94537   2451.58%   4644.39%
                              22       119283   3093.31%   7737.70%
                              24        47386   1228.84%   8966.54%
                              26         3348     86.82%   9053.36%
                              28          369      9.57%   9062.93%
                              30         2954     76.60%   9139.53%
                              32         3109     80.62%   9220.16%
                              34         2913     75.54%   9295.70%
                              36         3413     88.51%   9384.21%
                              38         2416     62.65%   9446.86%
                              40         9374    243.09%   9689.95%
                              42         1180     30.60%   9720.55%
                              44          528     13.69%   9734.24%
                              46          204      5.29%   9739.53%
                              48          432     11.20%   9750.74%
                              50          312      8.09%   9758.83%
                              52          462     11.98%   9770.81%
                              54          455     11.80%   9782.61%
                              56          549     14.24%   9796.84%
                              58          116      3.01%   9799.85%
                              60           20      0.52%   9800.37%
                              62           65      1.69%   9802.06%
                              64           43      1.12%   9803.17%
                              66           72      1.87%   9805.04%
                              68           81      2.10%   9807.14%
                              70          431     11.18%   9818.32%
                              72          331      8.58%   9826.90%
                              74          385      9.98%   9836.88%
                              76          104      2.70%   9839.58%
                              78          101      2.62%   9842.20%
                              80           89      2.31%   9844.51%
                              82          140      3.63%   9848.14%
                              84           70      1.82%   9849.95%
                              86           15      0.39%   9850.34%
                              88           55      1.43%   9851.77%
                              90           25      0.65%   9852.42%
                              92            8      0.21%   9852.63%
                              94           12      0.31%   9852.94%
                              96            8      0.21%   9853.14%
                              98            9      0.23%   9853.38%
system.cpu0.IQ:residence:IntMult.overflows         5654                      
system.cpu0.IQ:residence:IntMult.max_value          516                      
system.cpu0.IQ:residence:IntMult.end_dist

system.cpu0.IQ:residence:IntDiv.start_dist
system.cpu0.IQ:residence:IntDiv.samples             0                      
system.cpu0.IQ:residence:IntDiv.min_value            0                      
                               0            0                      
                               2            0                      
                               4            0                      
                               6            0                      
                               8            0                      
                              10            0                      
                              12            0                      
                              14            0                      
                              16            0                      
                              18            0                      
                              20            0                      
                              22            0                      
                              24            0                      
                              26            0                      
                              28            0                      
                              30            0                      
                              32            0                      
                              34            0                      
                              36            0                      
                              38            0                      
                              40            0                      
                              42            0                      
                              44            0                      
                              46            0                      
                              48            0                      
                              50            0                      
                              52            0                      
                              54            0                      
                              56            0                      
                              58            0                      
                              60            0                      
                              62            0                      
                              64            0                      
                              66            0                      
                              68            0                      
                              70            0                      
                              72            0                      
                              74            0                      
                              76            0                      
                              78            0                      
                              80            0                      
                              82            0                      
                              84            0                      
                              86            0                      
                              88            0                      
                              90            0                      
                              92            0                      
                              94            0                      
                              96            0                      
                              98            0                      
system.cpu0.IQ:residence:IntDiv.max_value            0                      
system.cpu0.IQ:residence:IntDiv.end_dist

system.cpu0.IQ:residence:FloatAdd.start_dist
system.cpu0.IQ:residence:FloatAdd.samples         9445                      
system.cpu0.IQ:residence:FloatAdd.min_value            1                      
                               0          103    109.05%    109.05%
                               2          187    197.99%    307.04%
                               4          141    149.29%    456.33%
                               6         2027   2146.11%   2602.44%
                               8           13     13.76%   2616.20%
                              10          462    489.15%   3105.35%
                              12         1038   1098.99%   4204.34%
                              14          331    350.45%   4554.79%
                              16         2419   2561.14%   7115.93%
                              18            1      1.06%   7116.99%
                              20            2      2.12%   7119.11%
                              22            3      3.18%   7122.29%
                              24            0      0.00%   7122.29%
                              26            0      0.00%   7122.29%
                              28            0      0.00%   7122.29%
                              30            0      0.00%   7122.29%
                              32            5      5.29%   7127.58%
                              34           32     33.88%   7161.46%
                              36         1823   1930.12%   9091.58%
                              38          851    901.01%   9992.59%
                              40            1      1.06%   9993.65%
                              42            1      1.06%   9994.71%
                              44            0      0.00%   9994.71%
                              46            0      0.00%   9994.71%
                              48            0      0.00%   9994.71%
                              50            0      0.00%   9994.71%
                              52            0      0.00%   9994.71%
                              54            0      0.00%   9994.71%
                              56            0      0.00%   9994.71%
                              58            0      0.00%   9994.71%
                              60            0      0.00%   9994.71%
                              62            0      0.00%   9994.71%
                              64            0      0.00%   9994.71%
                              66            0      0.00%   9994.71%
                              68            1      1.06%   9995.76%
                              70            0      0.00%   9995.76%
                              72            0      0.00%   9995.76%
                              74            0      0.00%   9995.76%
                              76            0      0.00%   9995.76%
                              78            0      0.00%   9995.76%
                              80            4      4.24%  10000.00%
                              82            0      0.00%  10000.00%
                              84            0      0.00%  10000.00%
                              86            0      0.00%  10000.00%
                              88            0      0.00%  10000.00%
                              90            0      0.00%  10000.00%
                              92            0      0.00%  10000.00%
                              94            0      0.00%  10000.00%
                              96            0      0.00%  10000.00%
                              98            0      0.00%  10000.00%
system.cpu0.IQ:residence:FloatAdd.max_value           80                      
system.cpu0.IQ:residence:FloatAdd.end_dist

system.cpu0.IQ:residence:FloatCmp.start_dist
system.cpu0.IQ:residence:FloatCmp.samples            0                      
system.cpu0.IQ:residence:FloatCmp.min_value            0                      
                               0            0                      
                               2            0                      
                               4            0                      
                               6            0                      
                               8            0                      
                              10            0                      
                              12            0                      
                              14            0                      
                              16            0                      
                              18            0                      
                              20            0                      
                              22            0                      
                              24            0                      
                              26            0                      
                              28            0                      
                              30            0                      
                              32            0                      
                              34            0                      
                              36            0                      
                              38            0                      
                              40            0                      
                              42            0                      
                              44            0                      
                              46            0                      
                              48            0                      
                              50            0                      
                              52            0                      
                              54            0                      
                              56            0                      
                              58            0                      
                              60            0                      
                              62            0                      
                              64            0                      
                              66            0                      
                              68            0                      
                              70            0                      
                              72            0                      
                              74            0                      
                              76            0                      
                              78            0                      
                              80            0                      
                              82            0                      
                              84            0                      
                              86            0                      
                              88            0                      
                              90            0                      
                              92            0                      
                              94            0                      
                              96            0                      
                              98            0                      
system.cpu0.IQ:residence:FloatCmp.max_value            0                      
system.cpu0.IQ:residence:FloatCmp.end_dist

system.cpu0.IQ:residence:FloatCvt.start_dist
system.cpu0.IQ:residence:FloatCvt.samples            0                      
system.cpu0.IQ:residence:FloatCvt.min_value            0                      
                               0            0                      
                               2            0                      
                               4            0                      
                               6            0                      
                               8            0                      
                              10            0                      
                              12            0                      
                              14            0                      
                              16            0                      
                              18            0                      
                              20            0                      
                              22            0                      
                              24            0                      
                              26            0                      
                              28            0                      
                              30            0                      
                              32            0                      
                              34            0                      
                              36            0                      
                              38            0                      
                              40            0                      
                              42            0                      
                              44            0                      
                              46            0                      
                              48            0                      
                              50            0                      
                              52            0                      
                              54            0                      
                              56            0                      
                              58            0                      
                              60            0                      
                              62            0                      
                              64            0                      
                              66            0                      
                              68            0                      
                              70            0                      
                              72            0                      
                              74            0                      
                              76            0                      
                              78            0                      
                              80            0                      
                              82            0                      
                              84            0                      
                              86            0                      
                              88            0                      
                              90            0                      
                              92            0                      
                              94            0                      
                              96            0                      
                              98            0                      
system.cpu0.IQ:residence:FloatCvt.max_value            0                      
system.cpu0.IQ:residence:FloatCvt.end_dist

system.cpu0.IQ:residence:FloatMult.start_dist
system.cpu0.IQ:residence:FloatMult.samples            2                      
system.cpu0.IQ:residence:FloatMult.min_value           74                      
                               0            0      0.00%      0.00%
                               2            0      0.00%      0.00%
                               4            0      0.00%      0.00%
                               6            0      0.00%      0.00%
                               8            0      0.00%      0.00%
                              10            0      0.00%      0.00%
                              12            0      0.00%      0.00%
                              14            0      0.00%      0.00%
                              16            0      0.00%      0.00%
                              18            0      0.00%      0.00%
                              20            0      0.00%      0.00%
                              22            0      0.00%      0.00%
                              24            0      0.00%      0.00%
                              26            0      0.00%      0.00%
                              28            0      0.00%      0.00%
                              30            0      0.00%      0.00%
                              32            0      0.00%      0.00%
                              34            0      0.00%      0.00%
                              36            0      0.00%      0.00%
                              38            0      0.00%      0.00%
                              40            0      0.00%      0.00%
                              42            0      0.00%      0.00%
                              44            0      0.00%      0.00%
                              46            0      0.00%      0.00%
                              48            0      0.00%      0.00%
                              50            0      0.00%      0.00%
                              52            0      0.00%      0.00%
                              54            0      0.00%      0.00%
                              56            0      0.00%      0.00%
                              58            0      0.00%      0.00%
                              60            0      0.00%      0.00%
                              62            0      0.00%      0.00%
                              64            0      0.00%      0.00%
                              66            0      0.00%      0.00%
                              68            0      0.00%      0.00%
                              70            0      0.00%      0.00%
                              72            0      0.00%      0.00%
                              74            1   5000.00%   5000.00%
                              76            0      0.00%   5000.00%
                              78            0      0.00%   5000.00%
                              80            0      0.00%   5000.00%
                              82            0      0.00%   5000.00%
                              84            0      0.00%   5000.00%
                              86            0      0.00%   5000.00%
                              88            0      0.00%   5000.00%
                              90            0      0.00%   5000.00%
                              92            0      0.00%   5000.00%
                              94            0      0.00%   5000.00%
                              96            1   5000.00%  10000.00%
                              98            0      0.00%  10000.00%
system.cpu0.IQ:residence:FloatMult.max_value           97                      
system.cpu0.IQ:residence:FloatMult.end_dist

system.cpu0.IQ:residence:FloatDiv.start_dist
system.cpu0.IQ:residence:FloatDiv.samples           60                      
system.cpu0.IQ:residence:FloatDiv.min_value            6                      
                               0            0      0.00%      0.00%
                               2            0      0.00%      0.00%
                               4            0      0.00%      0.00%
                               6           59   9833.33%   9833.33%
                               8            0      0.00%   9833.33%
                              10            0      0.00%   9833.33%
                              12            0      0.00%   9833.33%
                              14            0      0.00%   9833.33%
                              16            0      0.00%   9833.33%
                              18            0      0.00%   9833.33%
                              20            0      0.00%   9833.33%
                              22            0      0.00%   9833.33%
                              24            1    166.67%  10000.00%
                              26            0      0.00%  10000.00%
                              28            0      0.00%  10000.00%
                              30            0      0.00%  10000.00%
                              32            0      0.00%  10000.00%
                              34            0      0.00%  10000.00%
                              36            0      0.00%  10000.00%
                              38            0      0.00%  10000.00%
                              40            0      0.00%  10000.00%
                              42            0      0.00%  10000.00%
                              44            0      0.00%  10000.00%
                              46            0      0.00%  10000.00%
                              48            0      0.00%  10000.00%
                              50            0      0.00%  10000.00%
                              52            0      0.00%  10000.00%
                              54            0      0.00%  10000.00%
                              56            0      0.00%  10000.00%
                              58            0      0.00%  10000.00%
                              60            0      0.00%  10000.00%
                              62            0      0.00%  10000.00%
                              64            0      0.00%  10000.00%
                              66            0      0.00%  10000.00%
                              68            0      0.00%  10000.00%
                              70            0      0.00%  10000.00%
                              72            0      0.00%  10000.00%
                              74            0      0.00%  10000.00%
                              76            0      0.00%  10000.00%
                              78            0      0.00%  10000.00%
                              80            0      0.00%  10000.00%
                              82            0      0.00%  10000.00%
                              84            0      0.00%  10000.00%
                              86            0      0.00%  10000.00%
                              88            0      0.00%  10000.00%
                              90            0      0.00%  10000.00%
                              92            0      0.00%  10000.00%
                              94            0      0.00%  10000.00%
                              96            0      0.00%  10000.00%
                              98            0      0.00%  10000.00%
system.cpu0.IQ:residence:FloatDiv.max_value           24                      
system.cpu0.IQ:residence:FloatDiv.end_dist

system.cpu0.IQ:residence:FloatSqrt.start_dist
system.cpu0.IQ:residence:FloatSqrt.samples            0                      
system.cpu0.IQ:residence:FloatSqrt.min_value            0                      
                               0            0                      
                               2            0                      
                               4            0                      
                               6            0                      
                               8            0                      
                              10            0                      
                              12            0                      
                              14            0                      
                              16            0                      
                              18            0                      
                              20            0                      
                              22            0                      
                              24            0                      
                              26            0                      
                              28            0                      
                              30            0                      
                              32            0                      
                              34            0                      
                              36            0                      
                              38            0                      
                              40            0                      
                              42            0                      
                              44            0                      
                              46            0                      
                              48            0                      
                              50            0                      
                              52            0                      
                              54            0                      
                              56            0                      
                              58            0                      
                              60            0                      
                              62            0                      
                              64            0                      
                              66            0                      
                              68            0                      
                              70            0                      
                              72            0                      
                              74            0                      
                              76            0                      
                              78            0                      
                              80            0                      
                              82            0                      
                              84            0                      
                              86            0                      
                              88            0                      
                              90            0                      
                              92            0                      
                              94            0                      
                              96            0                      
                              98            0                      
system.cpu0.IQ:residence:FloatSqrt.max_value            0                      
system.cpu0.IQ:residence:FloatSqrt.end_dist

system.cpu0.IQ:residence:MemRead.start_dist
system.cpu0.IQ:residence:MemRead.samples     38040748                      
system.cpu0.IQ:residence:MemRead.min_value            1                      
                               0      3981590   1046.66%   1046.66%
                               2      6227743   1637.12%   2683.79%
                               4      3187542    837.93%   3521.72%
                               6      2623097    689.55%   4211.27%
                               8      1981344    520.85%   4732.11%
                              10      1653943    434.78%   5166.90%
                              12      1242478    326.62%   5493.51%
                              14      1088790    286.22%   5779.73%
                              16      1166050    306.53%   6086.26%
                              18      1678236    441.17%   6527.43%
                              20      2452850    644.80%   7172.22%
                              22      2774177    729.26%   7901.49%
                              24       878729    231.00%   8132.48%
                              26       231828     60.94%   8193.42%
                              28       208181     54.73%   8248.15%
                              30       153818     40.44%   8288.58%
                              32       158528     41.67%   8330.26%
                              34       216691     56.96%   8387.22%
                              36       251220     66.04%   8453.26%
                              38       246196     64.72%   8517.98%
                              40       172603     45.37%   8563.35%
                              42       189665     49.86%   8613.21%
                              44       137080     36.04%   8649.25%
                              46       175566     46.15%   8695.40%
                              48        83279     21.89%   8717.29%
                              50       127355     33.48%   8750.77%
                              52        79372     20.86%   8771.63%
                              54        89652     23.57%   8795.20%
                              56        42702     11.23%   8806.43%
                              58        49157     12.92%   8819.35%
                              60        74420     19.56%   8838.91%
                              62        93999     24.71%   8863.62%
                              64       136190     35.80%   8899.42%
                              66        33366      8.77%   8908.19%
                              68        33605      8.83%   8917.03%
                              70        27399      7.20%   8924.23%
                              72        39958     10.50%   8934.73%
                              74        34157      8.98%   8943.71%
                              76        29007      7.63%   8951.34%
                              78        65523     17.22%   8968.56%
                              80        38850     10.21%   8978.78%
                              82        30061      7.90%   8986.68%
                              84        37974      9.98%   8996.66%
                              86        51011     13.41%   9010.07%
                              88        20726      5.45%   9015.52%
                              90        20279      5.33%   9020.85%
                              92        20059      5.27%   9026.12%
                              94        22814      6.00%   9032.12%
                              96        20140      5.29%   9037.41%
                              98         8471      2.23%   9039.64%
system.cpu0.IQ:residence:MemRead.overflows      3653277                      
system.cpu0.IQ:residence:MemRead.max_value        18874                      
system.cpu0.IQ:residence:MemRead.end_dist

system.cpu0.IQ:residence:MemWrite.start_dist
system.cpu0.IQ:residence:MemWrite.samples     22739827                      
system.cpu0.IQ:residence:MemWrite.min_value            1                      
                               0      2045009    899.31%    899.31%
                               2      3994324   1756.53%   2655.84%
                               4      2349092   1033.03%   3688.87%
                               6      1945267    855.44%   4544.31%
                               8      1509560    663.84%   5208.15%
                              10       957128    420.90%   5629.06%
                              12       770669    338.91%   5967.96%
                              14       683146    300.42%   6268.38%
                              16       729560    320.83%   6589.21%
                              18      1001999    440.64%   7029.85%
                              20      1339109    588.88%   7618.73%
                              22      1682240    739.78%   8358.51%
                              24       860989    378.63%   8737.13%
                              26       233752    102.79%   8839.93%
                              28       189466     83.32%   8923.25%
                              30       132084     58.08%   8981.33%
                              32       186813     82.15%   9063.48%
                              34       185203     81.44%   9144.93%
                              36       219613     96.58%   9241.51%
                              38       167861     73.82%   9315.32%
                              40       164107     72.17%   9387.49%
                              42       121921     53.62%   9441.11%
                              44       107568     47.30%   9488.41%
                              46        71414     31.40%   9519.81%
                              48        57474     25.27%   9545.09%
                              50       155399     68.34%   9613.43%
                              52        71742     31.55%   9644.98%
                              54        35609     15.66%   9660.64%
                              56        37541     16.51%   9677.14%
                              58        26814     11.79%   9688.94%
                              60        49459     21.75%   9710.69%
                              62        68213     30.00%   9740.68%
                              64       122935     54.06%   9794.74%
                              66        17390      7.65%   9802.39%
                              68        15762      6.93%   9809.32%
                              70        20165      8.87%   9818.19%
                              72        24099     10.60%   9828.79%
                              74        19871      8.74%   9837.53%
                              76        30061     13.22%   9850.75%
                              78        38487     16.92%   9867.67%
                              80        31519     13.86%   9881.53%
                              82        18022      7.93%   9889.46%
                              84        13148      5.78%   9895.24%
                              86        11549      5.08%   9900.32%
                              88         9738      4.28%   9904.60%
                              90         8524      3.75%   9908.35%
                              92        11149      4.90%   9913.25%
                              94         8777      3.86%   9917.11%
                              96         5781      2.54%   9919.65%
                              98         4192      1.84%   9921.50%
system.cpu0.IQ:residence:MemWrite.overflows       178513                      
system.cpu0.IQ:residence:MemWrite.max_value        18879                      
system.cpu0.IQ:residence:MemWrite.end_dist

system.cpu0.IQ:residence:IprAccess.start_dist
system.cpu0.IQ:residence:IprAccess.samples      1383995                      
system.cpu0.IQ:residence:IprAccess.min_value            1                      
                               0       288498   2084.53%   2084.53%
                               2       245217   1771.81%   3856.34%
                               4        79582    575.02%   4431.35%
                               6       264573   1911.66%   6343.01%
                               8       222311   1606.30%   7949.31%
                              10        63217    456.77%   8406.09%
                              12        42576    307.63%   8713.72%
                              14        34795    251.41%   8965.13%
                              16        32303    233.40%   9198.53%
                              18        17193    124.23%   9322.76%
                              20        17120    123.70%   9446.46%
                              22        17155    123.95%   9570.41%
                              24        11143     80.51%   9650.92%
                              26         4062     29.35%   9680.27%
                              28         5446     39.35%   9719.62%
                              30         2930     21.17%   9740.79%
                              32         1941     14.02%   9754.82%
                              34         2259     16.32%   9771.14%
                              36         3859     27.88%   9799.02%
                              38         4148     29.97%   9829.00%
                              40         1023      7.39%   9836.39%
                              42          860      6.21%   9842.60%
                              44         1242      8.97%   9851.57%
                              46          857      6.19%   9857.77%
                              48         2021     14.60%   9872.37%
                              50         1149      8.30%   9880.67%
                              52          941      6.80%   9887.47%
                              54          773      5.59%   9893.06%
                              56          582      4.21%   9897.26%
                              58         2563     18.52%   9915.78%
                              60          892      6.45%   9922.23%
                              62          546      3.95%   9926.17%
                              64         2369     17.12%   9943.29%
                              66          331      2.39%   9945.68%
                              68          259      1.87%   9947.55%
                              70          365      2.64%   9950.19%
                              72          428      3.09%   9953.28%
                              74          225      1.63%   9954.91%
                              76          555      4.01%   9958.92%
                              78          673      4.86%   9963.78%
                              80          373      2.70%   9966.47%
                              82          197      1.42%   9967.90%
                              84          276      1.99%   9969.89%
                              86          632      4.57%   9974.46%
                              88          277      2.00%   9976.46%
                              90          585      4.23%   9980.69%
                              92          119      0.86%   9981.55%
                              94          223      1.61%   9983.16%
                              96          147      1.06%   9984.22%
                              98          139      1.00%   9985.22%
system.cpu0.IQ:residence:IprAccess.overflows         2045                      
system.cpu0.IQ:residence:IprAccess.max_value          250                      
system.cpu0.IQ:residence:IprAccess.end_dist

system.cpu0.IQ:residence:InstPrefetch.start_dist
system.cpu0.IQ:residence:InstPrefetch.samples            0                      
system.cpu0.IQ:residence:InstPrefetch.min_value            0                      
                               0            0                      
                               2            0                      
                               4            0                      
                               6            0                      
                               8            0                      
                              10            0                      
                              12            0                      
                              14            0                      
                              16            0                      
                              18            0                      
                              20            0                      
                              22            0                      
                              24            0                      
                              26            0                      
                              28            0                      
                              30            0                      
                              32            0                      
                              34            0                      
                              36            0                      
                              38            0                      
                              40            0                      
                              42            0                      
                              44            0                      
                              46            0                      
                              48            0                      
                              50            0                      
                              52            0                      
                              54            0                      
                              56            0                      
                              58            0                      
                              60            0                      
                              62            0                      
                              64            0                      
                              66            0                      
                              68            0                      
                              70            0                      
                              72            0                      
                              74            0                      
                              76            0                      
                              78            0                      
                              80            0                      
                              82            0                      
                              84            0                      
                              86            0                      
                              88            0                      
                              90            0                      
                              92            0                      
                              94            0                      
                              96            0                      
                              98            0                      
system.cpu0.IQ:residence:InstPrefetch.max_value            0                      
system.cpu0.IQ:residence:InstPrefetch.end_dist

system.cpu0.ISSUE:(null)_delay.start_dist 
system.cpu0.ISSUE:(null)_delay.samples           9062                      
system.cpu0.ISSUE:(null)_delay.min_value            1                      
                               0         8120   8960.49%   8960.49%
                               2          620    684.18%   9644.67%
                               4          145    160.01%   9804.68%
                               6           29     32.00%   9836.68%
                               8          125    137.94%   9974.62%
                              10            2      2.21%   9976.83%
                              12            3      3.31%   9980.14%
                              14            2      2.21%   9982.34%
                              16           10     11.04%   9993.38%
                              18            4      4.41%   9997.79%
                              20            2      2.21%  10000.00%
                              22            0      0.00%  10000.00%
                              24            0      0.00%  10000.00%
                              26            0      0.00%  10000.00%
                              28            0      0.00%  10000.00%
                              30            0      0.00%  10000.00%
                              32            0      0.00%  10000.00%
                              34            0      0.00%  10000.00%
                              36            0      0.00%  10000.00%
                              38            0      0.00%  10000.00%
                              40            0      0.00%  10000.00%
                              42            0      0.00%  10000.00%
                              44            0      0.00%  10000.00%
                              46            0      0.00%  10000.00%
                              48            0      0.00%  10000.00%
                              50            0      0.00%  10000.00%
                              52            0      0.00%  10000.00%
                              54            0      0.00%  10000.00%
                              56            0      0.00%  10000.00%
                              58            0      0.00%  10000.00%
                              60            0      0.00%  10000.00%
                              62            0      0.00%  10000.00%
                              64            0      0.00%  10000.00%
                              66            0      0.00%  10000.00%
                              68            0      0.00%  10000.00%
                              70            0      0.00%  10000.00%
                              72            0      0.00%  10000.00%
                              74            0      0.00%  10000.00%
                              76            0      0.00%  10000.00%
                              78            0      0.00%  10000.00%
                              80            0      0.00%  10000.00%
                              82            0      0.00%  10000.00%
                              84            0      0.00%  10000.00%
                              86            0      0.00%  10000.00%
                              88            0      0.00%  10000.00%
                              90            0      0.00%  10000.00%
                              92            0      0.00%  10000.00%
                              94            0      0.00%  10000.00%
                              96            0      0.00%  10000.00%
                              98            0      0.00%  10000.00%
system.cpu0.ISSUE:(null)_delay.max_value           21                      
system.cpu0.ISSUE:(null)_delay.end_dist

system.cpu0.ISSUE:IntAlu_delay.start_dist 
system.cpu0.ISSUE:IntAlu_delay.samples       95348830                      
system.cpu0.ISSUE:IntAlu_delay.min_value            0                      
                               0     84331153   8844.49%   8844.49%
                               2      5330864    559.09%   9403.58%
                               4      1781604    186.85%   9590.43%
                               6       789800     82.83%   9673.26%
                               8       455966     47.82%   9721.08%
                              10       324278     34.01%   9755.09%
                              12       295952     31.04%   9786.13%
                              14       758193     79.52%   9865.65%
                              16       561790     58.92%   9924.57%
                              18       283694     29.75%   9954.32%
                              20       217338     22.79%   9977.12%
                              22       208127     21.83%   9998.94%
                              24        10071      1.06%  10000.00%
                              26            0      0.00%  10000.00%
                              28            0      0.00%  10000.00%
                              30            0      0.00%  10000.00%
                              32            0      0.00%  10000.00%
                              34            0      0.00%  10000.00%
                              36            0      0.00%  10000.00%
                              38            0      0.00%  10000.00%
                              40            0      0.00%  10000.00%
                              42            0      0.00%  10000.00%
                              44            0      0.00%  10000.00%
                              46            0      0.00%  10000.00%
                              48            0      0.00%  10000.00%
                              50            0      0.00%  10000.00%
                              52            0      0.00%  10000.00%
                              54            0      0.00%  10000.00%
                              56            0      0.00%  10000.00%
                              58            0      0.00%  10000.00%
                              60            0      0.00%  10000.00%
                              62            0      0.00%  10000.00%
                              64            0      0.00%  10000.00%
                              66            0      0.00%  10000.00%
                              68            0      0.00%  10000.00%
                              70            0      0.00%  10000.00%
                              72            0      0.00%  10000.00%
                              74            0      0.00%  10000.00%
                              76            0      0.00%  10000.00%
                              78            0      0.00%  10000.00%
                              80            0      0.00%  10000.00%
                              82            0      0.00%  10000.00%
                              84            0      0.00%  10000.00%
                              86            0      0.00%  10000.00%
                              88            0      0.00%  10000.00%
                              90            0      0.00%  10000.00%
                              92            0      0.00%  10000.00%
                              94            0      0.00%  10000.00%
                              96            0      0.00%  10000.00%
                              98            0      0.00%  10000.00%
system.cpu0.ISSUE:IntAlu_delay.max_value           24                      
system.cpu0.ISSUE:IntAlu_delay.end_dist

system.cpu0.ISSUE:IntMult_delay.start_dist
system.cpu0.ISSUE:IntMult_delay.samples        385616                      
system.cpu0.ISSUE:IntMult_delay.min_value            0                      
                               0       287312   7450.73%   7450.73%
                               2        50464   1308.66%   8759.39%
                               4        23485    609.03%   9368.41%
                               6         6491    168.33%   9536.74%
                               8         1369     35.50%   9572.24%
                              10         2267     58.79%   9631.03%
                              12         1758     45.59%   9676.62%
                              14         2096     54.35%   9730.98%
                              16          920     23.86%   9754.83%
                              18         3348     86.82%   9841.66%
                              20         3144     81.53%   9923.19%
                              22         2158     55.96%   9979.15%
                              24          804     20.85%  10000.00%
                              26            0      0.00%  10000.00%
                              28            0      0.00%  10000.00%
                              30            0      0.00%  10000.00%
                              32            0      0.00%  10000.00%
                              34            0      0.00%  10000.00%
                              36            0      0.00%  10000.00%
                              38            0      0.00%  10000.00%
                              40            0      0.00%  10000.00%
                              42            0      0.00%  10000.00%
                              44            0      0.00%  10000.00%
                              46            0      0.00%  10000.00%
                              48            0      0.00%  10000.00%
                              50            0      0.00%  10000.00%
                              52            0      0.00%  10000.00%
                              54            0      0.00%  10000.00%
                              56            0      0.00%  10000.00%
                              58            0      0.00%  10000.00%
                              60            0      0.00%  10000.00%
                              62            0      0.00%  10000.00%
                              64            0      0.00%  10000.00%
                              66            0      0.00%  10000.00%
                              68            0      0.00%  10000.00%
                              70            0      0.00%  10000.00%
                              72            0      0.00%  10000.00%
                              74            0      0.00%  10000.00%
                              76            0      0.00%  10000.00%
                              78            0      0.00%  10000.00%
                              80            0      0.00%  10000.00%
                              82            0      0.00%  10000.00%
                              84            0      0.00%  10000.00%
                              86            0      0.00%  10000.00%
                              88            0      0.00%  10000.00%
                              90            0      0.00%  10000.00%
                              92            0      0.00%  10000.00%
                              94            0      0.00%  10000.00%
                              96            0      0.00%  10000.00%
                              98            0      0.00%  10000.00%
system.cpu0.ISSUE:IntMult_delay.max_value           24                      
system.cpu0.ISSUE:IntMult_delay.end_dist

system.cpu0.ISSUE:IntDiv_delay.start_dist 
system.cpu0.ISSUE:IntDiv_delay.samples              0                      
system.cpu0.ISSUE:IntDiv_delay.min_value            0                      
                               0            0                      
                               2            0                      
                               4            0                      
                               6            0                      
                               8            0                      
                              10            0                      
                              12            0                      
                              14            0                      
                              16            0                      
                              18            0                      
                              20            0                      
                              22            0                      
                              24            0                      
                              26            0                      
                              28            0                      
                              30            0                      
                              32            0                      
                              34            0                      
                              36            0                      
                              38            0                      
                              40            0                      
                              42            0                      
                              44            0                      
                              46            0                      
                              48            0                      
                              50            0                      
                              52            0                      
                              54            0                      
                              56            0                      
                              58            0                      
                              60            0                      
                              62            0                      
                              64            0                      
                              66            0                      
                              68            0                      
                              70            0                      
                              72            0                      
                              74            0                      
                              76            0                      
                              78            0                      
                              80            0                      
                              82            0                      
                              84            0                      
                              86            0                      
                              88            0                      
                              90            0                      
                              92            0                      
                              94            0                      
                              96            0                      
                              98            0                      
system.cpu0.ISSUE:IntDiv_delay.max_value            0                      
system.cpu0.ISSUE:IntDiv_delay.end_dist

system.cpu0.ISSUE:FloatAdd_delay.start_dist
system.cpu0.ISSUE:FloatAdd_delay.samples         9445                      
system.cpu0.ISSUE:FloatAdd_delay.min_value            0                      
                               0         4844   5128.64%   5128.64%
                               2          187    197.99%   5326.63%
                               4            8      8.47%   5335.10%
                               6          206    218.10%   5553.20%
                               8           13     13.76%   5566.97%
[...]
system.cpu0.kern.ipl_ticks_31                96547750     17.90%    100.00%
system.cpu0.kern.ipl_used                    0.870737                      
system.cpu0.kern.ipl_used_0                  0.982846                      
system.cpu0.kern.ipl_used_21                        1                      
system.cpu0.kern.ipl_used_22                        1                      
system.cpu0.kern.ipl_used_31                 0.778728                      
system.cpu0.kern.mode_good_kernel                3247                      
system.cpu0.kern.mode_good_user                  2916                      
system.cpu0.kern.mode_good_idle                   132                      
system.cpu0.kern.mode_good_interrupt              199                      
system.cpu0.kern.mode_switch_kernel             14536                      
system.cpu0.kern.mode_switch_user                2916                      
system.cpu0.kern.mode_switch_idle                6397                      
system.cpu0.kern.mode_switch_interrupt            199                      
system.cpu0.kern.mode_switch_good            0.270043                      
system.cpu0.kern.mode_switch_good_kernel     0.223376                      
system.cpu0.kern.mode_switch_good_user              1                      
system.cpu0.kern.mode_switch_good_idle       0.020635                      
system.cpu0.kern.mode_switch_good_interrupt            1                      
system.cpu0.kern.mode_ticks_kernel           66278951     12.29%     12.29%
system.cpu0.kern.mode_ticks_user             16507035      3.06%     15.35%
system.cpu0.kern.mode_ticks_idle            454799327     84.33%     99.68%
system.cpu0.kern.mode_ticks_interrupt         1709183      0.32%    100.00%
system.cpu0.kern.swap_context                    5498                      
system.cpu0.kern.syscall                          669                      
system.cpu0.kern.syscall_exit                       1      0.15%      0.15%
system.cpu0.kern.syscall_fork                      12      1.79%      1.94%
system.cpu0.kern.syscall_read                      47      7.03%      8.97%
system.cpu0.kern.syscall_write                     49      7.32%     16.29%
system.cpu0.kern.syscall_close                     74     11.06%     27.35%
system.cpu0.kern.syscall_chdir                      2      0.30%     27.65%
system.cpu0.kern.syscall_chmod                      1      0.15%     27.80%
system.cpu0.kern.syscall_obreak                    60      8.97%     36.77%
system.cpu0.kern.syscall_lseek                     12      1.79%     38.57%
system.cpu0.kern.syscall_getpid                    11      1.64%     40.21%
system.cpu0.kern.syscall_setuid                     4      0.60%     40.81%
system.cpu0.kern.syscall_getuid                    12      1.79%     42.60%
system.cpu0.kern.syscall_access                     4      0.60%     43.20%
system.cpu0.kern.syscall_dup                        4      0.60%     43.80%
system.cpu0.kern.syscall_open                      99     14.80%     58.59%
system.cpu0.kern.syscall_getgid                    12      1.79%     60.39%
system.cpu0.kern.syscall_sigprocmask               17      2.54%     62.93%
system.cpu0.kern.syscall_ioctl                     23      3.44%     66.37%
system.cpu0.kern.syscall_readlink                   3      0.45%     66.82%
system.cpu0.kern.syscall_execve                     9      1.35%     68.16%
system.cpu0.kern.syscall_pre_F64_stat              36      5.38%     73.54%
system.cpu0.kern.syscall_pre_F64_lstat              1      0.15%     73.69%
system.cpu0.kern.syscall_mmap                      69     10.31%     84.01%
system.cpu0.kern.syscall_munmap                    11      1.64%     85.65%
system.cpu0.kern.syscall_mprotect                  17      2.54%     88.19%
system.cpu0.kern.syscall_gethostname                3      0.45%     88.64%
system.cpu0.kern.syscall_dup2                       3      0.45%     89.09%
system.cpu0.kern.syscall_pre_F64_fstat             36      5.38%     94.47%
system.cpu0.kern.syscall_fcntl                     18      2.69%     97.16%
system.cpu0.kern.syscall_socket                     4      0.60%     97.76%
system.cpu0.kern.syscall_connect                    4      0.60%     98.36%
system.cpu0.kern.syscall_setgid                     4      0.60%     98.95%
system.cpu0.kern.syscall_getrlimit                  2      0.30%     99.25%
system.cpu0.kern.syscall_setsid                     3      0.45%     99.70%
system.cpu0.kern.syscall_getsysinfo                 1      0.15%     99.85%
system.cpu0.kern.syscall_setsysinfo                 1      0.15%    100.00%
system.cpu0.numCycles                       539296032                      
system.cpu0inst_class_dist.start_dist
                   All ops ready            0      0.00%           
                One op not ready            0      0.00%           
           None rdy, mult chains            0      0.00%           
           None rdy, one chained            0      0.00%           
        None rdy, all self-timed            0      0.00%           
system.cpu0inst_class_dist.end_dist
system.htbus.addr_idle_cycles               538291236                      
system.htbus.addr_idle_fraction              0.998137                      
system.htbus.addr_queued                    23.527845                      
system.htbus.addr_queued_cycles               3181247                      
system.htbus.addr_requests                     135212                      
system.htbus.bus_blocked                            0                      
system.htbus.bus_blocked_cycles                     0                      
system.htbus.bus_blocked_fraction                   0                      
system.htbus.data_idle_cycles               538189347                      
system.htbus.data_idle_fraction              0.997948                      
system.htbus.data_queued                            1                      
system.htbus.data_queued_cycles                  9042                      
system.htbus.data_requests                       9042                      
system.htbus.null_grants                            0                      
system.kern.fnCalls                                 0                      
system.l2.avg_blocked_cycles_no_mshrs    <err: div-0>                      
system.l2.avg_blocked_cycles_no_targets  <err: div-0>                      
system.l2.avg_refs                           2.406457                      
system.l2.blocked_no_mshrs                          0                      
system.l2.blocked_no_targets                        0                      
system.l2.blocked_cycles_no_mshrs                   0                      
system.l2.blocked_cycles_no_targets                 0                      
system.l2.cache_copies                              0                      
system.l2.demand_accesses                     3351275                      
system.l2.demand_avg_miss_latency           64.049925                      
system.l2.demand_avg_mshr_miss_latency      34.132042                      
system.l2.demand_hits                         2170518                      
system.l2.demand_miss_latency                75627397                      
system.l2.demand_miss_rate                   0.352331                      
system.l2.demand_misses                       1180757                      
system.l2.demand_mshr_hits                          0                      
system.l2.demand_mshr_miss_latency           40301647                      
system.l2.demand_mshr_miss_rate              0.352331                      
system.l2.demand_mshr_misses                  1180757                      
system.l2.fast_writes                               0                      
system.l2.mshr_cap_events                           0                      
system.l2.no_allocate_misses                        0                      
system.l2.overall_accesses                    4018458                      
system.l2.overall_avg_miss_latency          64.049925                      
system.l2.overall_avg_mshr_miss_latency     34.132042                      
system.l2.overall_avg_mshr_uncacheable_latency   164.234170                      
system.l2.overall_hits                        2837701                      
system.l2.overall_miss_latency               75627397                      
system.l2.overall_miss_rate                  0.293833                      
system.l2.overall_misses                      1180757                      
system.l2.overall_mshr_hits                         0                      
system.l2.overall_mshr_miss_latency          40301647                      
system.l2.overall_mshr_miss_rate             0.293833                      
system.l2.overall_mshr_misses                 1180757                      
system.l2.overall_mshr_uncacheable_latency      3550907                      
system.l2.overall_mshr_uncacheable_misses        21621                      
system.l2.prefetcher.num_hwpf_already_in_cache            0                      
system.l2.prefetcher.num_hwpf_already_in_mshr            0                      
system.l2.prefetcher.num_hwpf_already_in_prefetcher            0                      
system.l2.prefetcher.num_hwpf_evicted               0                      
system.l2.prefetcher.num_hwpf_identified            0                      
system.l2.prefetcher.num_hwpf_issued                0                      
system.l2.prefetcher.num_hwpf_removed_MSHR_hit            0                      
system.l2.prefetcher.num_hwpf_span_page             0                      
system.l2.prefetcher.num_hwpf_squashed_from_miss            0                      
system.l2.read_accesses                       3351275                      
system.l2.read_avg_miss_latency             64.049925                      
system.l2.read_avg_mshr_miss_latency        34.132042                      
system.l2.read_avg_mshr_uncacheable_latency   134.368362                      
system.l2.read_hits                           2170518                      
system.l2.read_miss_latency                  75627397                      
system.l2.read_miss_rate                     0.352331                      
system.l2.read_misses                         1180757                      
system.l2.read_mshr_miss_latency             40301647                      
system.l2.read_mshr_miss_rate                0.352331                      
system.l2.read_mshr_misses                    1180757                      
system.l2.read_mshr_uncacheable                  9868                      
system.l2.read_mshr_uncacheable_latency       1325947                      
system.l2.replacements                        1146706                      
system.l2.sampled_refs                        1178864                      
system.l2.soft_prefetch_mshr_full                   0                      
system.l2.tagsinuse                      32565.795209                      
system.l2.total_refs                          2836886                      
system.l2.warmup_cycle                        3461084                      
system.l2.write_avg_mshr_uncacheable_latency   189.309963                      
system.l2.write_mshr_uncacheable                11753                      
system.l2.write_mshr_uncacheable_latency      2224960                      
system.l2.writeback_accesses                   667183                      
system.l2.writeback_hits                       667183                      
system.l2.writebacks                           145415                      
system.l2bus.addr_idle_cycles               535188527                      
system.l2bus.addr_idle_fraction              0.992384                      
system.l2bus.addr_queued                     4.047241                      
system.l2bus.addr_queued_cycles              16620841                      
system.l2bus.addr_requests                    4106709                      
system.l2bus.bus_blocked                          209                      
system.l2bus.bus_blocked_cycles                 93620                      
system.l2bus.bus_blocked_fraction            0.000174                      
system.l2bus.data_idle_cycles               535255876                      
system.l2bus.data_idle_fraction              0.992508                      
system.l2bus.data_queued                     1.015581                      
system.l2bus.data_queued_cycles               3413539                      
system.l2bus.data_requests                    3361169                      
system.l2bus.null_grants                        37077                      
system.membus.addr_idle_cycles              537816972                      
system.membus.addr_idle_fraction             0.997257                      
system.membus.addr_queued                   29.589054                      
system.membus.addr_queued_cycles             43477327                      
system.membus.addr_requests                   1469372                      
system.membus.bus_blocked                           0                      
system.membus.bus_blocked_cycles                    0                      
system.membus.bus_blocked_fraction                  0                      
system.membus.data_idle_cycles              533739962                      
system.membus.data_idle_fraction             0.989698                      
system.membus.data_queued                    2.232713                      
system.membus.data_queued_cycles              2658829                      
system.membus.data_requests                   1190851                      
system.membus.null_grants                           0                      
system.pcibus.addr_idle_cycles              538131828                      
system.pcibus.addr_idle_fraction             0.997841                      
system.pcibus.addr_queued                  339.755332                      
system.pcibus.addr_queued_cycles             45938998                      
system.pcibus.addr_requests                    135212                      
system.pcibus.bus_blocked                        3426                      
system.pcibus.bus_blocked_cycles                37683                      
system.pcibus.bus_blocked_fraction           0.000070                      
system.pcibus.data_idle_cycles              537512044                      
system.pcibus.data_idle_fraction             0.996692                      
system.pcibus.data_queued                    2.153838                      
system.pcibus.data_queued_cycles                19475                      
system.pcibus.data_requests                      9042                      
system.pcibus.null_grants                           0                      
system.ram.accesses                           1381198                      
system.ram.bytes_requested                          0                      
system.ram.bytes_sent                               0                      
system.ram.compressed_responses                     0                      
system.tsunami.etherdev0.coalescedRxDesc <err: div-0>                      
system.tsunami.etherdev0.coalescedRxIdle <err: div-0>                      
system.tsunami.etherdev0.coalescedRxOk   <err: div-0>                      
system.tsunami.etherdev0.coalescedRxOrn  <err: div-0>                      
system.tsunami.etherdev0.coalescedSwi    <err: div-0>                      
system.tsunami.etherdev0.coalescedTotal  <err: div-0>                      
system.tsunami.etherdev0.coalescedTxDesc <err: div-0>                      
system.tsunami.etherdev0.coalescedTxIdle <err: div-0>                      
system.tsunami.etherdev0.coalescedTxOk   <err: div-0>                      
system.tsunami.etherdev0.descDMAReads               0                      
system.tsunami.etherdev0.descDMAWrites              0                      
system.tsunami.etherdev0.descDmaReadBytes            0                      
system.tsunami.etherdev0.descDmaWriteBytes            0                      
system.tsunami.etherdev0.dma.avg_large_transaction_latency <err: div-0>                      
system.tsunami.etherdev0.dma.avg_small_transaction_latency <err: div-0>                      
system.tsunami.etherdev0.dma.avg_transaction_latency <err: div-0>                      
system.tsunami.etherdev0.dma.bytes_transfered            0                      
system.tsunami.etherdev0.dma.large_transaction_latency            0                      
system.tsunami.etherdev0.dma.large_transactions            0                      
system.tsunami.etherdev0.dma.packets_sent            0                      
system.tsunami.etherdev0.dma.requests               0                      
system.tsunami.etherdev0.dma.round_trip_latency <err: div-0>                      
system.tsunami.etherdev0.dma.small_transaction_latency            0                      
system.tsunami.etherdev0.dma.small_transactions            0                      
system.tsunami.etherdev0.dma.total_cycle_latency            0                      
system.tsunami.etherdev0.dma.transaction_latency            0                      
system.tsunami.etherdev0.droppedPackets             0                      
system.tsunami.etherdev0.postedInterrupts            0                      
system.tsunami.etherdev0.postedRxDesc               0                      
system.tsunami.etherdev0.postedRxIdle               0                      
system.tsunami.etherdev0.postedRxOk                 0                      
system.tsunami.etherdev0.postedRxOrn                0                      
system.tsunami.etherdev0.postedSwi                  0                      
system.tsunami.etherdev0.postedTxDesc               0                      
system.tsunami.etherdev0.postedTxIdle               0                      
system.tsunami.etherdev0.postedTxOk                 0                      
system.tsunami.etherdev0.totalRxDesc                0                      
system.tsunami.etherdev0.totalRxIdle                0                      
system.tsunami.etherdev0.totalRxOk                  0                      
system.tsunami.etherdev0.totalRxOrn                 0                      
system.tsunami.etherdev0.totalSwi                   0                      
system.tsunami.etherdev0.totalTxDesc                0                      
system.tsunami.etherdev0.totalTxIdle                0                      
system.tsunami.etherdev0.totalTxOk                  0                      
system.tsunami.ide.dma.avg_large_transaction_latency  1891.757170                      
system.tsunami.ide.dma.avg_small_transaction_latency   138.228571                      
system.tsunami.ide.dma.avg_transaction_latency  1389.381992                      
system.tsunami.ide.dma.bytes_transfered       3520984                      
system.tsunami.ide.dma.large_transaction_latency       989389                      
system.tsunami.ide.dma.large_transactions          523                      
system.tsunami.ide.dma.packets_sent             55026                      
system.tsunami.ide.dma.requests                   733                      
system.tsunami.ide.dma.round_trip_latency  1083.411115                      
system.tsunami.ide.dma.small_transaction_latency        29028                      
system.tsunami.ide.dma.small_transactions          210                      
system.tsunami.ide.dma.total_cycle_latency     59615780                      
system.tsunami.ide.dma.transaction_latency      1018417                      

---------- End Simulation Statistics   ----------
