
---------- Begin Simulation Statistics ----------
host_inst_rate                                   7598                      
host_mem_usage                                 194176                      
host_seconds                                 23958.74                      
host_tick_rate                                 241408                      
sim_freq                                    350000000                      
sim_insts                                   182044279                      
sim_seconds                                 16.525248                      
sim_ticks                                  5783836805                      
system.cpu0.COM:IPB                          5.817069                      
system.cpu0.COM:IPC                          0.031475                      
system.cpu0.COM:branches                     31294846                      
system.cpu0.COM:bw_lim_avg               <err: div-0>                      
system.cpu0.COM:bw_lim_events                       0                      
system.cpu0.COM:bw_lim_rate                    0.0000                      
system.cpu0.COM:bw_lim_stdev_0_mean      <err: div-0>                      
system.cpu0.COM:bw_lim_stdev_0_stdev     <err: div-0>                      
**Ignore: system.cpu0.COM:bw_lim_stdev_0_TOT       0.0000                      
system.cpu0.COM:bw_limited                          0                      
system.cpu0.COM:committed_per_cycle.start_dist
system.cpu0.COM:committed_per_cycle.samples     62329410                      
system.cpu0.COM:committed_per_cycle.min_value            0                      
                               0       644538    103.41%           
                               1     14446916   2317.83%           
                               2      7977047   1279.82%           
                               3      5186333    832.08%           
                               4     34074576   5466.85%           
system.cpu0.COM:committed_per_cycle.max_value            4                      
system.cpu0.COM:committed_per_cycle.end_dist

system.cpu0.COM:count                       182044279                      
system.cpu0.COM:loads                        27525212                      
system.cpu0.COM:membars                        465031                      
system.cpu0.COM:refs                         44246636                      
system.cpu0.COM:stores                       16721424                      
system.cpu0.COM:swp_count                      214034                      
system.cpu0.DDQ:count                     10990086261                      
system.cpu0.DDQ:rate                                2                      
system.cpu0.DIS:chain_creation.start_dist
     Inst has no outstanding IDEPS            0      0.00%           
      IDEP chain reached max depth            0      0.00%           
                    Inst is a load            0      0.00%           
  Chain has multiple chained IDEPS            0      0.00%           
system.cpu0.DIS:chain_creation.end_dist
system.cpu0.DIS:chain_head_frac                     0                      
system.cpu0.DIS:chain_heads                         0                      
system.cpu0.DIS:chains_insuf                        0                      
system.cpu0.DIS:chains_insuf_rate                   0                      
system.cpu0.DIS:count                       215658200                      
system.cpu0.DIS:insufficient_chains                 0                      
system.cpu0.DIS:mod_n_stall_avg_free     <err: div-0>                      
system.cpu0.DIS:mod_n_stall_frac                    0                      
system.cpu0.DIS:mod_n_stall_free                    0                      
system.cpu0.DIS:mod_n_stalls                        0                      
system.cpu0.DIS:one_rdy_insts                       0                      
system.cpu0.DIS:one_rdy_ratio                no value                      
system.cpu0.DIS:op_count                    269866921                      
system.cpu0.DIS:op_rate                      0.046659                      
system.cpu0.DIS:rate                         0.037286                      
system.cpu0.DIS:second_choice_clust                 0                      
system.cpu0.DIS:second_choice_stall                 0                      
system.cpu0.DIS:serialize_stall_cycles       14034060                      
system.cpu0.DIS:serializing_insts              526185                      
system.cpu0.DIS:two_input_insts                     0                      
system.cpu0.DIS:two_input_ratio                     0                      
system.cpu0.FETCH:branch_count               62456798                      
system.cpu0.FETCH:branch_rate                0.010799                      
system.cpu0.FETCH:chance_pct                        1                      
system.cpu0.FETCH:chances                    89833295                      
system.cpu0.FETCH:choice                     89833295                      
system.cpu0.FETCH:count                     319289485                      
system.cpu0.FETCH:decisions                  89833295                      
system.cpu0.FETCH:idle_cycles              5694003511                      
system.cpu0.FETCH:idle_icache_blocked_cycles            0                      
system.cpu0.FETCH:idle_rate                     98.45                      
system.cpu0.FETCH:prio_changes                      0                      
system.cpu0.FETCH:rate                       0.055204                      
system.cpu0.FETCH:rate_dist.start_dist    
system.cpu0.FETCH:rate_dist.samples          89833295                      
system.cpu0.FETCH:rate_dist.min_value               0                      
                               0       261268     29.08%           
                               1      6237406    694.33%           
                               2      4117518    458.35%           
                               3     12051369   1341.53%           
                               4     67165734   7476.71%           
system.cpu0.FETCH:rate_dist.max_value               4                      
system.cpu0.FETCH:rate_dist.end_dist

system.cpu0.FETCH:rate_dist_0.start_dist  
system.cpu0.FETCH:rate_dist_0.samples        89833295                      
system.cpu0.FETCH:rate_dist_0.min_value             0                      
                               0       261268     29.08%           
                               1      6237406    694.33%           
                               2      4117518    458.35%           
                               3     12051369   1341.53%           
                               4     67165734   7476.71%           
system.cpu0.FETCH:rate_dist_0.max_value             4                      
system.cpu0.FETCH:rate_dist_0.end_dist

system.cpu0.IFQ:count                      4351485243                      
system.cpu0.IFQ:full_count                  121753138                      
system.cpu0.IFQ:full_rate                    2.105058                      
system.cpu0.IFQ:latency                     20.177694                      
system.cpu0.IFQ:occupancy                    0.752353                      
system.cpu0.IFQ:qfull_iq_occ               5550746862                      
system.cpu0.IFQ:qfull_iq_occ_dist_0.start_dist
system.cpu0.IFQ:qfull_iq_occ_dist_0.samples     96071605                      
system.cpu0.IFQ:qfull_iq_occ_dist_0.min_value            0                      
                               0      7405777    770.86%           
                              10       901892     93.88%           
                              20       806513     83.95%           
                              30       923912     96.17%           
                              40      1139936    118.65%           
                              50      1201517    125.06%           
                              60     83692058   8711.42%           
system.cpu0.IFQ:qfull_iq_occ_dist_0.max_value           64                      
system.cpu0.IFQ:qfull_iq_occ_dist_0.end_dist

system.cpu0.IFQ:qfull_rob_occ              8669762233                      
system.cpu0.IFQ:qfull_rob_occ_dist_0.start_dist
system.cpu0.IFQ:qfull_rob_occ_dist_0.samples     96071605                      
system.cpu0.IFQ:qfull_rob_occ_dist_0.min_value            1                      
                               0      2164746    225.33%           
                              10      2193717    228.34%           
                              20      1384625    144.12%           
                              30       517755     53.89%           
                              40       334247     34.79%           
                              50       223613     23.28%           
                              60      5841837    608.07%           
                              70      1677660    174.63%           
                              80       787032     81.92%           
                              90     75209518   7828.49%           
                             100      1463472    152.33%           
                             110      1692626    176.18%           
                             120      2580757    268.63%           
                             130            0      0.00%           
system.cpu0.IFQ:qfull_rob_occ_dist_0.max_value          128                      
system.cpu0.IFQ:qfull_rob_occ_dist_0.end_dist

system.cpu0.IQ:cap_events                           0                      
system.cpu0.IQ:cap_inst                             0                      
system.cpu0.IQ:residence:(null).start_dist
system.cpu0.IQ:residence:(null).samples         12590                      
system.cpu0.IQ:residence:(null).min_value            1                      
                               0        11373   9033.36%   9033.36%
                               2          793    629.86%   9663.22%
                               4          206    163.62%   9826.85%
                               6           34     27.01%   9853.85%
                               8          147    116.76%   9970.61%
                              10            9      7.15%   9977.76%
                              12            2      1.59%   9979.35%
                              14            6      4.77%   9984.11%
                              16            8      6.35%   9990.47%
                              18            6      4.77%   9995.23%
                              20            6      4.77%  10000.00%
                              22            0      0.00%  10000.00%
                              24            0      0.00%  10000.00%
                              26            0      0.00%  10000.00%
                              28            0      0.00%  10000.00%
                              30            0      0.00%  10000.00%
                              32            0      0.00%  10000.00%
                              34            0      0.00%  10000.00%
                              36            0      0.00%  10000.00%
                              38            0      0.00%  10000.00%
                              40            0      0.00%  10000.00%
                              42            0      0.00%  10000.00%
                              44            0      0.00%  10000.00%
                              46            0      0.00%  10000.00%
                              48            0      0.00%  10000.00%
                              50            0      0.00%  10000.00%
                              52            0      0.00%  10000.00%
                              54            0      0.00%  10000.00%
                              56            0      0.00%  10000.00%
                              58            0      0.00%  10000.00%
                              60            0      0.00%  10000.00%
                              62            0      0.00%  10000.00%
                              64            0      0.00%  10000.00%
                              66            0      0.00%  10000.00%
                              68            0      0.00%  10000.00%
                              70            0      0.00%  10000.00%
                              72            0      0.00%  10000.00%
                              74            0      0.00%  10000.00%
                              76            0      0.00%  10000.00%
                              78            0      0.00%  10000.00%
                              80            0      0.00%  10000.00%
                              82            0      0.00%  10000.00%
                              84            0      0.00%  10000.00%
                              86            0      0.00%  10000.00%
                              88            0      0.00%  10000.00%
                              90            0      0.00%  10000.00%
                              92            0      0.00%  10000.00%
                              94            0      0.00%  10000.00%
                              96            0      0.00%  10000.00%
                              98            0      0.00%  10000.00%
system.cpu0.IQ:residence:(null).max_value           21                      
system.cpu0.IQ:residence:(null).end_dist

system.cpu0.IQ:residence:IntAlu.start_dist
system.cpu0.IQ:residence:IntAlu.samples     144940683                      
system.cpu0.IQ:residence:IntAlu.min_value            1                      
                               0     35322115   2437.00%   2437.00%
                               2     32497340   2242.11%   4679.12%
                               4      9292829    641.15%   5320.26%
                               6      6931349    478.22%   5798.48%
                               8      5610603    387.10%   6185.58%
                              10      4084917    281.83%   6467.41%
                              12      3947679    272.37%   6739.78%
                              14      4310554    297.40%   7037.18%
                              16      5720729    394.69%   7431.88%
                              18      4536936    313.02%   7744.90%
                              20      4769994    329.10%   8074.00%
                              22      6001955    414.10%   8488.09%
                              24      3628333    250.33%   8738.43%
                              26      1853694    127.89%   8866.32%
                              28      1128662     77.87%   8944.19%
                              30      1087771     75.05%   9019.24%
                              32       948479     65.44%   9084.68%
                              34       751311     51.84%   9136.51%
                              36       795542     54.89%   9191.40%
                              38       685287     47.28%   9238.68%
                              40       642928     44.36%   9283.04%
                              42       459735     31.72%   9314.76%
                              44       458845     31.66%   9346.42%
                              46       406017     28.01%   9374.43%
                              48       380418     26.25%   9400.67%
                              50       328067     22.63%   9423.31%
                              52       312105     21.53%   9444.84%
                              54       322031     22.22%   9467.06%
                              56       156069     10.77%   9477.83%
                              58       182097     12.56%   9490.39%
                              60       150677     10.40%   9500.79%
                              62       259973     17.94%   9518.72%
                              64       143075      9.87%   9528.60%
                              66       118007      8.14%   9536.74%
                              68       128925      8.90%   9545.63%
                              70        88634      6.12%   9551.75%
                              72        90808      6.27%   9558.01%
                              74        73535      5.07%   9563.09%
                              76        94268      6.50%   9569.59%
                              78       112495      7.76%   9577.35%
                              80        60517      4.18%   9581.53%
                              82        59552      4.11%   9585.64%
                              84        60758      4.19%   9589.83%
                              86        65941      4.55%   9594.38%
                              88        79387      5.48%   9599.85%
                              90        86567      5.97%   9605.83%
                              92        53024      3.66%   9609.49%
                              94        41286      2.85%   9612.33%
                              96        36547      2.52%   9614.86%
                              98        72130      4.98%   9619.83%
system.cpu0.IQ:residence:IntAlu.overflows      5510186                      
system.cpu0.IQ:residence:IntAlu.max_value        20147                      
system.cpu0.IQ:residence:IntAlu.end_dist

system.cpu0.IQ:residence:IntMult.start_dist
system.cpu0.IQ:residence:IntMult.samples       716919                      
system.cpu0.IQ:residence:IntMult.min_value            1                      
                               0        11187    156.04%    156.04%
                               2         8523    118.88%    274.93%
                               4        13945    194.51%    469.44%
                               6         9835    137.18%    606.62%
                               8        10744    149.86%    756.49%
                              10         9157    127.73%    884.21%
                              12         9498    132.48%   1016.70%
                              14        13433    187.37%   1204.07%
                              16        28093    391.86%   1595.93%
                              18        33578    468.37%   2064.29%
                              20       183224   2555.71%   4620.01%
                              22       238857   3331.72%   7951.72%
                              24        95153   1327.25%   9278.97%
                              26         7639    106.55%   9385.52%
                              28          665      9.28%   9394.80%
                              30         5037     70.26%   9465.06%
                              32         4186     58.39%   9523.45%
                              34         3934     54.87%   9578.32%
                              36         4594     64.08%   9642.40%
                              38         2628     36.66%   9679.06%
                              40        10087    140.70%   9819.76%
                              42         1340     18.69%   9838.45%
                              44          471      6.57%   9845.02%
                              46          204      2.85%   9847.86%
                              48          554      7.73%   9855.59%
                              50          316      4.41%   9860.00%
                              52          272      3.79%   9863.79%
                              54          641      8.94%   9872.73%
                              56          669      9.33%   9882.06%
                              58          125      1.74%   9883.81%
                              60           30      0.42%   9884.23%
                              62           70      0.98%   9885.20%
                              64           56      0.78%   9885.98%
                              66           85      1.19%   9887.17%
                              68          104      1.45%   9888.62%
                              70          466      6.50%   9895.12%
                              72          352      4.91%   9900.03%
                              74          335      4.67%   9904.70%
                              76           82      1.14%   9905.85%
                              78          106      1.48%   9907.33%
                              80          204      2.85%   9910.17%
                              82          218      3.04%   9913.21%
                              84          117      1.63%   9914.84%
                              86           15      0.21%   9915.05%
                              88           50      0.70%   9915.75%
                              90           26      0.36%   9916.11%
                              92           10      0.14%   9916.25%
                              94           21      0.29%   9916.55%
                              96            8      0.11%   9916.66%
                              98            9      0.13%   9916.78%
system.cpu0.IQ:residence:IntMult.overflows         5966                      
system.cpu0.IQ:residence:IntMult.max_value          678                      
system.cpu0.IQ:residence:IntMult.end_dist

system.cpu0.IQ:residence:IntDiv.start_dist
system.cpu0.IQ:residence:IntDiv.samples             0                      
system.cpu0.IQ:residence:IntDiv.min_value            0                      
                               0            0                      
                               2            0                      
                               4            0                      
                               6            0                      
                               8            0                      
                              10            0                      
                              12            0                      
                              14            0                      
                              16            0                      
                              18            0                      
                              20            0                      
                              22            0                      
                              24            0                      
                              26            0                      
                              28            0                      
                              30            0                      
                              32            0                      
                              34            0                      
                              36            0                      
                              38            0                      
                              40            0                      
                              42            0                      
                              44            0                      
                              46            0                      
                              48            0                      
                              50            0                      
                              52            0                      
                              54            0                      
                              56            0                      
                              58            0                      
                              60            0                      
                              62            0                      
                              64            0                      
                              66            0                      
                              68            0                      
                              70            0                      
                              72            0                      
                              74            0                      
                              76            0                      
                              78            0                      
                              80            0                      
                              82            0                      
                              84            0                      
                              86            0                      
                              88            0                      
                              90            0                      
                              92            0                      
                              94            0                      
                              96            0                      
                              98            0                      
system.cpu0.IQ:residence:IntDiv.max_value            0                      
system.cpu0.IQ:residence:IntDiv.end_dist

system.cpu0.IQ:residence:FloatAdd.start_dist
system.cpu0.IQ:residence:FloatAdd.samples        10309                      
system.cpu0.IQ:residence:FloatAdd.min_value            1                      
                               0          130    126.10%    126.10%
                               2          241    233.78%    359.88%
                               4          160    155.20%    515.08%
                               6         2299   2230.09%   2745.17%
                               8           35     33.95%   2779.13%
                              10          684    663.50%   3442.62%
                              12          941    912.79%   4355.42%
                              14          416    403.53%   4758.95%
                              16         2466   2392.08%   7151.03%
                              18            3      2.91%   7153.94%
                              20            0      0.00%   7153.94%
                              22            0      0.00%   7153.94%
                              24            0      0.00%   7153.94%
                              26            2      1.94%   7155.88%
                              28            0      0.00%   7155.88%
                              30            1      0.97%   7156.85%
                              32           15     14.55%   7171.40%
                              34           49     47.53%   7218.93%
                              36         1974   1914.83%   9133.77%
                              38          885    858.47%   9992.24%
                              40            1      0.97%   9993.21%
                              42            0      0.00%   9993.21%
                              44            0      0.00%   9993.21%
                              46            0      0.00%   9993.21%
                              48            0      0.00%   9993.21%
                              50            0      0.00%   9993.21%
                              52            0      0.00%   9993.21%
                              54            0      0.00%   9993.21%
                              56            0      0.00%   9993.21%
                              58            0      0.00%   9993.21%
                              60            0      0.00%   9993.21%
                              62            0      0.00%   9993.21%
                              64            0      0.00%   9993.21%
                              66            0      0.00%   9993.21%
                              68            0      0.00%   9993.21%
                              70            0      0.00%   9993.21%
                              72            0      0.00%   9993.21%
                              74            1      0.97%   9994.18%
                              76            0      0.00%   9994.18%
                              78            0      0.00%   9994.18%
                              80            2      1.94%   9996.12%
                              82            0      0.00%   9996.12%
                              84            4      3.88%  10000.00%
                              86            0      0.00%  10000.00%
                              88            0      0.00%  10000.00%
                              90            0      0.00%  10000.00%
                              92            0      0.00%  10000.00%
                              94            0      0.00%  10000.00%
                              96            0      0.00%  10000.00%
                              98            0      0.00%  10000.00%
system.cpu0.IQ:residence:FloatAdd.max_value           84                      
system.cpu0.IQ:residence:FloatAdd.end_dist

system.cpu0.IQ:residence:FloatCmp.start_dist
system.cpu0.IQ:residence:FloatCmp.samples            0                      
system.cpu0.IQ:residence:FloatCmp.min_value            0                      
                               0            0                      
                               2            0                      
                               4            0                      
                               6            0                      
                               8            0                      
                              10            0                      
                              12            0                      
                              14            0                      
                              16            0                      
                              18            0                      
                              20            0                      
                              22            0                      
                              24            0                      
                              26            0                      
                              28            0                      
                              30            0                      
                              32            0                      
                              34            0                      
                              36            0                      
                              38            0                      
                              40            0                      
                              42            0                      
                              44            0                      
                              46            0                      
                              48            0                      
                              50            0                      
                              52            0                      
                              54            0                      
                              56            0                      
                              58            0                      
                              60            0                      
                              62            0                      
                              64            0                      
                              66            0                      
                              68            0                      
                              70            0                      
                              72            0                      
                              74            0                      
                              76            0                      
                              78            0                      
                              80            0                      
                              82            0                      
                              84            0                      
                              86            0                      
                              88            0                      
                              90            0                      
                              92            0                      
                              94            0                      
                              96            0                      
                              98            0                      
system.cpu0.IQ:residence:FloatCmp.max_value            0                      
system.cpu0.IQ:residence:FloatCmp.end_dist

system.cpu0.IQ:residence:FloatCvt.start_dist
system.cpu0.IQ:residence:FloatCvt.samples            0                      
system.cpu0.IQ:residence:FloatCvt.min_value            0                      
                               0            0                      
                               2            0                      
                               4            0                      
                               6            0                      
                               8            0                      
                              10            0                      
                              12            0                      
                              14            0                      
                              16            0                      
                              18            0                      
                              20            0                      
                              22            0                      
                              24            0                      
                              26            0                      
                              28            0                      
                              30            0                      
                              32            0                      
                              34            0                      
                              36            0                      
                              38            0                      
                              40            0                      
                              42            0                      
                              44            0                      
                              46            0                      
                              48            0                      
                              50            0                      
                              52            0                      
                              54            0                      
                              56            0                      
                              58            0                      
                              60            0                      
                              62            0                      
                              64            0                      
                              66            0                      
                              68            0                      
                              70            0                      
                              72            0                      
                              74            0                      
                              76            0                      
                              78            0                      
                              80            0                      
                              82            0                      
                              84            0                      
                              86            0                      
                              88            0                      
                              90            0                      
                              92            0                      
                              94            0                      
                              96            0                      
                              98            0                      
system.cpu0.IQ:residence:FloatCvt.max_value            0                      
system.cpu0.IQ:residence:FloatCvt.end_dist

system.cpu0.IQ:residence:FloatMult.start_dist
system.cpu0.IQ:residence:FloatMult.samples            6                      
system.cpu0.IQ:residence:FloatMult.min_value            3                      
                               0            0      0.00%      0.00%
                               2            1   1666.67%   1666.67%
                               4            0      0.00%   1666.67%
                               6            0      0.00%   1666.67%
                               8            0      0.00%   1666.67%
                              10            0      0.00%   1666.67%
                              12            0      0.00%   1666.67%
                              14            2   3333.33%   5000.00%
                              16            0      0.00%   5000.00%
                              18            0      0.00%   5000.00%
                              20            0      0.00%   5000.00%
                              22            0      0.00%   5000.00%
                              24            0      0.00%   5000.00%
                              26            0      0.00%   5000.00%
                              28            0      0.00%   5000.00%
                              30            0      0.00%   5000.00%
                              32            0      0.00%   5000.00%
                              34            0      0.00%   5000.00%
                              36            1   1666.67%   6666.67%
                              38            0      0.00%   6666.67%
                              40            0      0.00%   6666.67%
                              42            0      0.00%   6666.67%
                              44            0      0.00%   6666.67%
                              46            0      0.00%   6666.67%
                              48            0      0.00%   6666.67%
                              50            0      0.00%   6666.67%
                              52            0      0.00%   6666.67%
                              54            0      0.00%   6666.67%
                              56            0      0.00%   6666.67%
                              58            0      0.00%   6666.67%
                              60            0      0.00%   6666.67%
                              62            0      0.00%   6666.67%
                              64            0      0.00%   6666.67%
                              66            0      0.00%   6666.67%
                              68            1   1666.67%   8333.33%
                              70            0      0.00%   8333.33%
                              72            0      0.00%   8333.33%
                              74            1   1666.67%  10000.00%
                              76            0      0.00%  10000.00%
                              78            0      0.00%  10000.00%
                              80            0      0.00%  10000.00%
                              82            0      0.00%  10000.00%
                              84            0      0.00%  10000.00%
                              86            0      0.00%  10000.00%
                              88            0      0.00%  10000.00%
                              90            0      0.00%  10000.00%
                              92            0      0.00%  10000.00%
                              94            0      0.00%  10000.00%
                              96            0      0.00%  10000.00%
                              98            0      0.00%  10000.00%
system.cpu0.IQ:residence:FloatMult.max_value           75                      
system.cpu0.IQ:residence:FloatMult.end_dist

system.cpu0.IQ:residence:FloatDiv.start_dist
system.cpu0.IQ:residence:FloatDiv.samples           60                      
system.cpu0.IQ:residence:FloatDiv.min_value            6                      
                               0            0      0.00%      0.00%
                               2            0      0.00%      0.00%
                               4            0      0.00%      0.00%
                               6           59   9833.33%   9833.33%
                               8            0      0.00%   9833.33%
                              10            0      0.00%   9833.33%
                              12            0      0.00%   9833.33%
                              14            0      0.00%   9833.33%
                              16            0      0.00%   9833.33%
                              18            0      0.00%   9833.33%
                              20            0      0.00%   9833.33%
                              22            0      0.00%   9833.33%
                              24            0      0.00%   9833.33%
                              26            0      0.00%   9833.33%
                              28            1    166.67%  10000.00%
                              30            0      0.00%  10000.00%
                              32            0      0.00%  10000.00%
                              34            0      0.00%  10000.00%
                              36            0      0.00%  10000.00%
                              38            0      0.00%  10000.00%
                              40            0      0.00%  10000.00%
                              42            0      0.00%  10000.00%
                              44            0      0.00%  10000.00%
                              46            0      0.00%  10000.00%
                              48            0      0.00%  10000.00%
                              50            0      0.00%  10000.00%
                              52            0      0.00%  10000.00%
                              54            0      0.00%  10000.00%
                              56            0      0.00%  10000.00%
                              58            0      0.00%  10000.00%
                              60            0      0.00%  10000.00%
                              62            0      0.00%  10000.00%
                              64            0      0.00%  10000.00%
                              66            0      0.00%  10000.00%
                              68            0      0.00%  10000.00%
                              70            0      0.00%  10000.00%
                              72            0      0.00%  10000.00%
                              74            0      0.00%  10000.00%
                              76            0      0.00%  10000.00%
                              78            0      0.00%  10000.00%
                              80            0      0.00%  10000.00%
                              82            0      0.00%  10000.00%
                              84            0      0.00%  10000.00%
                              86            0      0.00%  10000.00%
                              88            0      0.00%  10000.00%
                              90            0      0.00%  10000.00%
                              92            0      0.00%  10000.00%
                              94            0      0.00%  10000.00%
                              96            0      0.00%  10000.00%
                              98            0      0.00%  10000.00%
system.cpu0.IQ:residence:FloatDiv.max_value           28                      
system.cpu0.IQ:residence:FloatDiv.end_dist

system.cpu0.IQ:residence:FloatSqrt.start_dist
system.cpu0.IQ:residence:FloatSqrt.samples            0                      
system.cpu0.IQ:residence:FloatSqrt.min_value            0                      
                               0            0                      
                               2            0                      
                               4            0                      
                               6            0                      
                               8            0                      
                              10            0                      
                              12            0                      
                              14            0                      
                              16            0                      
                              18            0                      
                              20            0                      
                              22            0                      
                              24            0                      
                              26            0                      
                              28            0                      
                              30            0                      
                              32            0                      
                              34            0                      
                              36            0                      
                              38            0                      
                              40            0                      
                              42            0                      
                              44            0                      
                              46            0                      
                              48            0                      
                              50            0                      
                              52            0                      
                              54            0                      
                              56            0                      
                              58            0                      
                              60            0                      
                              62            0                      
                              64            0                      
                              66            0                      
                              68            0                      
                              70            0                      
                              72            0                      
                              74            0                      
                              76            0                      
                              78            0                      
                              80            0                      
                              82            0                      
                              84            0                      
                              86            0                      
                              88            0                      
                              90            0                      
                              92            0                      
                              94            0                      
                              96            0                      
                              98            0                      
system.cpu0.IQ:residence:FloatSqrt.max_value            0                      
system.cpu0.IQ:residence:FloatSqrt.end_dist

system.cpu0.IQ:residence:MemRead.start_dist
system.cpu0.IQ:residence:MemRead.samples     60980559                      
system.cpu0.IQ:residence:MemRead.min_value            1                      
                               0      5964822    978.15%    978.15%
                               2      9251750   1517.16%   2495.32%
                               4      4987435    817.87%   3313.19%
                               6      4002885    656.42%   3969.61%
                               8      2960588    485.50%   4455.11%
                              10      2524432    413.97%   4869.08%
                              12      2224996    364.87%   5233.95%
                              14      2147087    352.09%   5586.04%
                              16      2330891    382.24%   5968.28%
                              18      3235257    530.54%   6498.82%
                              20      4803944    787.78%   7286.60%
                              22      5935919    973.41%   8260.01%
                              24      1981754    324.98%   8584.99%
                              26       404103     66.27%   8651.26%
                              28       387967     63.62%   8714.88%
                              30       390177     63.98%   8778.86%
                              32       213178     34.96%   8813.82%
                              34       324557     53.22%   8867.05%
                              36       357980     58.70%   8925.75%
                              38       376655     61.77%   8987.52%
                              40       226722     37.18%   9024.70%
                              42       225717     37.01%   9061.71%
                              44       169655     27.82%   9089.53%
                              46       220482     36.16%   9125.69%
                              48        98552     16.16%   9141.85%
                              50       136990     22.46%   9164.31%
                              52        94827     15.55%   9179.86%
                              54       120065     19.69%   9199.55%
                              56        47889      7.85%   9207.41%
                              58        64044     10.50%   9217.91%
                              60        80865     13.26%   9231.17%
                              62        74869     12.28%   9243.45%
                              64       125254     20.54%   9263.99%
                              66        59700      9.79%   9273.78%
                              68        49253      8.08%   9281.85%
                              70        30672      5.03%   9286.88%
                              72        43316      7.10%   9293.99%
                              74        35449      5.81%   9299.80%
                              76        32462      5.32%   9305.12%
                              78        71150     11.67%   9316.79%
                              80        42085      6.90%   9323.69%
                              82        30304      4.97%   9328.66%
                              84        41681      6.84%   9335.50%
                              86        61502     10.09%   9345.58%
                              88        21341      3.50%   9349.08%
                              90        27311      4.48%   9353.56%
                              92        24637      4.04%   9357.60%
                              94        28801      4.72%   9362.32%
                              96        23328      3.83%   9366.15%
                              98        10252      1.68%   9367.83%
system.cpu0.IQ:residence:MemRead.overflows      3855007                      
system.cpu0.IQ:residence:MemRead.max_value        20143                      
system.cpu0.IQ:residence:MemRead.end_dist

system.cpu0.IQ:residence:MemWrite.start_dist
system.cpu0.IQ:residence:MemWrite.samples     35021232                      
system.cpu0.IQ:residence:MemWrite.min_value            1                      
                               0      2877796    821.73%    821.73%
                               2      5777597   1649.74%   2471.47%
                               4      3560706   1016.73%   3488.20%
                               6      2643098    754.71%   4242.91%
                               8      2112779    603.29%   4846.20%
                              10      1325454    378.47%   5224.67%
                              12      1226003    350.07%   5574.74%
                              14      1097471    313.37%   5888.11%
                              16      1469309    419.55%   6307.66%
                              18      1755781    501.35%   6809.01%
                              20      2324834    663.84%   7472.85%
                              22      3402805    971.64%   8444.49%
                              24      1694334    483.80%   8928.29%
                              26       414460    118.35%   9046.63%
                              28       323203     92.29%   9138.92%
                              30       197259     56.33%   9195.25%
                              32       251135     71.71%   9266.96%
                              34       245553     70.12%   9337.07%
                              36       280931     80.22%   9417.29%
                              38       216437     61.80%   9479.09%
                              40       199669     57.01%   9536.10%
                              42       149320     42.64%   9578.74%
                              44       119655     34.17%   9612.91%
                              46        91144     26.03%   9638.93%
                              48        73245     20.91%   9659.85%
                              50       168386     48.08%   9707.93%
                              52        85257     24.34%   9732.27%
                              54        47717     13.63%   9745.90%
                              56        40532     11.57%   9757.47%
                              58        25182      7.19%   9764.66%
                              60        57390     16.39%   9781.05%
                              62        76795     21.93%   9802.98%
                              64       126555     36.14%   9839.11%
                              66        22957      6.56%   9845.67%
                              68        16557      4.73%   9850.40%
                              70        20799      5.94%   9856.34%
                              72        25877      7.39%   9863.73%
                              74        21340      6.09%   9869.82%
                              76        34992      9.99%   9879.81%
                              78        43245     12.35%   9892.16%
                              80        34185      9.76%   9901.92%
                              82        21193      6.05%   9907.97%
                              84        12984      3.71%   9911.68%
                              86         9874      2.82%   9914.50%
                              88        14523      4.15%   9918.65%
                              90        13722      3.92%   9922.56%
                              92        14177      4.05%   9926.61%
                              94         7683      2.19%   9928.81%
                              96         5142      1.47%   9930.27%
                              98         8328      2.38%   9932.65%
system.cpu0.IQ:residence:MemWrite.overflows       235862                      
system.cpu0.IQ:residence:MemWrite.max_value        20148                      
system.cpu0.IQ:residence:MemWrite.end_dist

system.cpu0.IQ:residence:IprAccess.start_dist
system.cpu0.IQ:residence:IprAccess.samples      2521715                      
system.cpu0.IQ:residence:IprAccess.min_value            1                      
                               0       490091   1943.48%   1943.48%
                               2       430787   1708.31%   3651.79%
                               4       154350    612.08%   4263.88%
                               6       480316   1904.72%   6168.60%
                               8       397084   1574.66%   7743.25%
                              10       123904    491.35%   8234.60%
                              12       117026    464.07%   8698.68%
                              14        46315    183.66%   8882.34%
                              16        89994    356.88%   9239.22%
                              18        50627    200.76%   9439.98%
                              20        35812    142.01%   9581.99%
                              22        22108     87.67%   9669.67%
                              24        14271     56.59%   9726.26%
                              26         5059     20.06%   9746.32%
                              28        15766     62.52%   9808.84%
                              30         3053     12.11%   9820.95%
                              32         2129      8.44%   9829.39%
                              34         2780     11.02%   9840.41%
                              36         5339     21.17%   9861.59%
                              38         5721     22.69%   9884.27%
                              40         1287      5.10%   9889.38%
                              42          592      2.35%   9891.72%
                              44         1327      5.26%   9896.99%
                              46         1004      3.98%   9900.97%
                              48         2225      8.82%   9909.79%
                              50         1243      4.93%   9914.72%
                              52          921      3.65%   9918.37%
                              54          809      3.21%   9921.58%
                              56          753      2.99%   9924.57%
                              58         3450     13.68%   9938.25%
                              60         1233      4.89%   9943.14%
                              62          666      2.64%   9945.78%
                              64         2527     10.02%   9955.80%
                              66          416      1.65%   9957.45%
                              68          297      1.18%   9958.63%
                              70          474      1.88%   9960.51%
                              72          528      2.09%   9962.60%
                              74          264      1.05%   9963.65%
                              76          628      2.49%   9966.14%
                              78          878      3.48%   9969.62%
                              80          501      1.99%   9971.61%
                              82          336      1.33%   9972.94%
                              84          587      2.33%   9975.27%
                              86          760      3.01%   9978.28%
                              88          352      1.40%   9979.68%
                              90          946      3.75%   9983.43%
                              92          253      1.00%   9984.43%
                              94          448      1.78%   9986.21%
                              96          266      1.05%   9987.26%
                              98          236      0.94%   9988.20%
system.cpu0.IQ:residence:IprAccess.overflows         2976                      
system.cpu0.IQ:residence:IprAccess.max_value          290                      
system.cpu0.IQ:residence:IprAccess.end_dist

system.cpu0.IQ:residence:InstPrefetch.start_dist
system.cpu0.IQ:residence:InstPrefetch.samples            0                      
system.cpu0.IQ:residence:InstPrefetch.min_value            0                      
                               0            0                      
                               2            0                      
                               4            0                      
                               6            0                      
                               8            0                      
                              10            0                      
                              12            0                      
                              14            0                      
                              16            0                      
                              18            0                      
                              20            0                      
                              22            0                      
                              24            0                      
                              26            0                      
                              28            0                      
                              30            0                      
                              32            0                      
                              34            0                      
                              36            0                      
                              38            0                      
                              40            0                      
                              42            0                      
                              44            0                      
                              46            0                      
                              48            0                      
                              50            0                      
                              52            0                      
                              54            0                      
                              56            0                      
                              58            0                      
                              60            0                      
                              62            0                      
                              64            0                      
                              66            0                      
                              68            0                      
                              70            0                      
                              72            0                      
                              74            0                      
                              76            0                      
                              78            0                      
                              80            0                      
                              82            0                      
                              84            0                      
                              86            0                      
                              88            0                      
                              90            0                      
                              92            0                      
                              94            0                      
                              96            0                      
                              98            0                      
system.cpu0.IQ:residence:InstPrefetch.max_value            0                      
system.cpu0.IQ:residence:InstPrefetch.end_dist

system.cpu0.ISSUE:(null)_delay.start_dist 
system.cpu0.ISSUE:(null)_delay.samples          12590                      
system.cpu0.ISSUE:(null)_delay.min_value            1                      
                               0        11373   9033.36%   9033.36%
                               2          793    629.86%   9663.22%
                               4          206    163.62%   9826.85%
                               6           34     27.01%   9853.85%
                               8          147    116.76%   9970.61%
                              10            9      7.15%   9977.76%
                              12            2      1.59%   9979.35%
                              14            6      4.77%   9984.11%
                              16            8      6.35%   9990.47%
                              18            6      4.77%   9995.23%
                              20            6      4.77%  10000.00%
                              22            0      0.00%  10000.00%
                              24            0      0.00%  10000.00%
                              26            0      0.00%  10000.00%
                              28            0      0.00%  10000.00%
                              30            0      0.00%  10000.00%
                              32            0      0.00%  10000.00%
                              34            0      0.00%  10000.00%
                              36            0      0.00%  10000.00%
                              38            0      0.00%  10000.00%
                              40            0      0.00%  10000.00%
                              42            0      0.00%  10000.00%
                              44            0      0.00%  10000.00%
                              46            0      0.00%  10000.00%
                              48            0      0.00%  10000.00%
                              50            0      0.00%  10000.00%
                              52            0      0.00%  10000.00%
                              54            0      0.00%  10000.00%
                              56            0      0.00%  10000.00%
                              58            0      0.00%  10000.00%
                              60            0      0.00%  10000.00%
                              62            0      0.00%  10000.00%
                              64            0      0.00%  10000.00%
                              66            0      0.00%  10000.00%
                              68            0      0.00%  10000.00%
                              70            0      0.00%  10000.00%
                              72            0      0.00%  10000.00%
                              74            0      0.00%  10000.00%
                              76            0      0.00%  10000.00%
                              78            0      0.00%  10000.00%
                              80            0      0.00%  10000.00%
                              82            0      0.00%  10000.00%
                              84            0      0.00%  10000.00%
                              86            0      0.00%  10000.00%
                              88            0      0.00%  10000.00%
                              90            0      0.00%  10000.00%
                              92            0      0.00%  10000.00%
                              94            0      0.00%  10000.00%
                              96            0      0.00%  10000.00%
                              98            0      0.00%  10000.00%
system.cpu0.ISSUE:(null)_delay.max_value           21                      
system.cpu0.ISSUE:(null)_delay.end_dist

system.cpu0.ISSUE:IntAlu_delay.start_dist 
system.cpu0.ISSUE:IntAlu_delay.samples      144940683                      
system.cpu0.ISSUE:IntAlu_delay.min_value            0                      
                               0    127324974   8784.63%   8784.63%
                               2      8208503    566.34%   9350.96%
                               4      2845189    196.30%   9547.26%
                               6      1225183     84.53%   9631.79%
                               8       820043     56.58%   9688.37%
                              10       548482     37.84%   9726.21%
                              12       500345     34.52%   9760.73%
                              14      1079039     74.45%   9835.18%
                              16       859962     59.33%   9894.51%
                              18       507754     35.03%   9929.54%
                              20       482501     33.29%   9962.83%
                              22       513366     35.42%   9998.25%
                              24        25342      1.75%  10000.00%
                              26            0      0.00%  10000.00%
                              28            0      0.00%  10000.00%
                              30            0      0.00%  10000.00%
                              32            0      0.00%  10000.00%
                              34            0      0.00%  10000.00%
                              36            0      0.00%  10000.00%
                              38            0      0.00%  10000.00%
                              40            0      0.00%  10000.00%
                              42            0      0.00%  10000.00%
                              44            0      0.00%  10000.00%
                              46            0      0.00%  10000.00%
                              48            0      0.00%  10000.00%
                              50            0      0.00%  10000.00%
                              52            0      0.00%  10000.00%
                              54            0      0.00%  10000.00%
                              56            0      0.00%  10000.00%
                              58            0      0.00%  10000.00%
                              60            0      0.00%  10000.00%
                              62            0      0.00%  10000.00%
                              64            0      0.00%  10000.00%
                              66            0      0.00%  10000.00%
                              68            0      0.00%  10000.00%
                              70            0      0.00%  10000.00%
                              72            0      0.00%  10000.00%
                              74            0      0.00%  10000.00%
                              76            0      0.00%  10000.00%
                              78            0      0.00%  10000.00%
                              80            0      0.00%  10000.00%
                              82            0      0.00%  10000.00%
                              84            0      0.00%  10000.00%
                              86            0      0.00%  10000.00%
                              88            0      0.00%  10000.00%
                              90            0      0.00%  10000.00%
                              92            0      0.00%  10000.00%
                              94            0      0.00%  10000.00%
                              96            0      0.00%  10000.00%
                              98            0      0.00%  10000.00%
system.cpu0.ISSUE:IntAlu_delay.max_value           24                      
system.cpu0.ISSUE:IntAlu_delay.end_dist

system.cpu0.ISSUE:IntMult_delay.start_dist
system.cpu0.ISSUE:IntMult_delay.samples        716919                      
system.cpu0.ISSUE:IntMult_delay.min_value            0                      
                               0       523952   7308.38%   7308.38%
                               2        98641   1375.90%   8684.29%
                               4        45733    637.91%   9322.20%
                               6        13470    187.89%   9510.08%
                               8         2991     41.72%   9551.80%
                              10         4582     63.91%   9615.72%
                              12         2986     41.65%   9657.37%
                              14         2849     39.74%   9697.11%
                              16         1066     14.87%   9711.98%
                              18         7571    105.60%   9817.58%
                              20         7512    104.78%   9922.36%
                              22         4582     63.91%   9986.27%
                              24          984     13.73%  10000.00%
                              26            0      0.00%  10000.00%
                              28            0      0.00%  10000.00%
                              30            0      0.00%  10000.00%
                              32            0      0.00%  10000.00%
                              34            0      0.00%  10000.00%
                              36            0      0.00%  10000.00%
                              38            0      0.00%  10000.00%
                              40            0      0.00%  10000.00%
                              42            0      0.00%  10000.00%
                              44            0      0.00%  10000.00%
                              46            0      0.00%  10000.00%
                              48            0      0.00%  10000.00%
                              50            0      0.00%  10000.00%
                              52            0      0.00%  10000.00%
                              54            0      0.00%  10000.00%
                              56            0      0.00%  10000.00%
                              58            0      0.00%  10000.00%
                              60            0      0.00%  10000.00%
                              62            0      0.00%  10000.00%
                              64            0      0.00%  10000.00%
                              66            0      0.00%  10000.00%
                              68            0      0.00%  10000.00%
                              70            0      0.00%  10000.00%
                              72            0      0.00%  10000.00%
                              74            0      0.00%  10000.00%
                              76            0      0.00%  10000.00%
                              78            0      0.00%  10000.00%
                              80            0      0.00%  10000.00%
                              82            0      0.00%  10000.00%
                              84            0      0.00%  10000.00%
                              86            0      0.00%  10000.00%
                              88            0      0.00%  10000.00%
                              90            0      0.00%  10000.00%
                              92            0      0.00%  10000.00%
                              94            0      0.00%  10000.00%
                              96            0      0.00%  10000.00%
                              98            0      0.00%  10000.00%
system.cpu0.ISSUE:IntMult_delay.max_value           24                      
system.cpu0.ISSUE:IntMult_delay.end_dist

system.cpu0.ISSUE:IntDiv_delay.start_dist 
system.cpu0.ISSUE:IntDiv_delay.samples              0                      
system.cpu0.ISSUE:IntDiv_delay.min_value            0                      
                               0            0                      
                               2            0                      
                               4            0                      
                               6            0                      
                               8            0                      
                              10            0                      
                              12            0                      
                              14            0                      
                              16            0                      
                              18            0                      
                              20            0                      
                              22            0                      
                              24            0                      
                              26            0                      
                              28            0                      
                              30            0                      
                              32            0                      
                              34            0                      
                              36            0                      
                              38            0                      
                              40            0                      
                              42            0                      
                              44            0                      
                              46            0                      
                              48            0                      
                              50            0                      
                              52            0                      
                              54            0                      
                              56            0                      
                              58            0                      
                              60            0                      
                              62            0                      
                              64            0                      
                              66            0                      
                              68            0                      
                              70            0                      
                              72            0                      
                              74            0                      
                              76            0                      
                              78            0                      
                              80            0                      
                              82            0                      
                              84            0                      
                              86            0                      
                              88            0                      
                              90            0                      
                              92            0                      
                              94            0                      
                              96            0                      
                              98            0                      
system.cpu0.ISSUE:IntDiv_delay.max_value            0                      
system.cpu0.ISSUE:IntDiv_delay.end_dist

system.cpu0.ISSUE:FloatAdd_delay.start_dist
system.cpu0.ISSUE:FloatAdd_delay.samples        10309                      
system.cpu0.ISSUE:FloatAdd_delay.min_value            0                      
                               0         5275   5116.89%   5116.89%
                               2          241    233.78%   5350.66%
                               4            4      3.88%   5354.54%
                               6          350    339.51%   5694.05%
                               8           32     31.04%   5725.09%
                              10          649    629.55%   6354.64%
                              12          939    910.85%   7265.50%
                              14          414    401.59%   7667.09%
                              16         2405   2332.91%  10000.00%
                              18            0      0.00%  10000.00%
                              20            0      0.00%  10000.00%
                              22            0      0.00%  10000.00%
                              24            0      0.00%  10000.00%
                              26            0      0.00%  10000.00%
                              28            0      0.00%  10000.00%
                              30            0      0.00%  10000.00%
                              32            0      0.00%  10000.00%
                              34            0      0.00%  10000.00%
                              36            0      0.00%  10000.00%
                              38            0      0.00%  10000.00%
                              40            0      0.00%  10000.00%
                              42            0      0.00%  10000.00%
                              44            0      0.00%  10000.00%
[...]
system.cpu0.kern.ipl_used_31                 0.755233                      
system.cpu0.kern.mode_good_kernel                4970                      
system.cpu0.kern.mode_good_user                  4499                      
system.cpu0.kern.mode_good_idle                   199                      
system.cpu0.kern.mode_good_interrupt              272                      
system.cpu0.kern.mode_switch_kernel             18442                      
system.cpu0.kern.mode_switch_user                4499                      
system.cpu0.kern.mode_switch_idle               50201                      
system.cpu0.kern.mode_switch_interrupt            272                      
system.cpu0.kern.mode_switch_good            0.135397                      
system.cpu0.kern.mode_switch_good_kernel     0.269494                      
system.cpu0.kern.mode_switch_good_user              1                      
system.cpu0.kern.mode_switch_good_idle       0.003964                      
system.cpu0.kern.mode_switch_good_interrupt            1                      
system.cpu0.kern.mode_ticks_kernel           76606672      1.32%      1.32%
system.cpu0.kern.mode_ticks_user             28403336      0.49%      1.82%
system.cpu0.kern.mode_ticks_idle           5675445974     98.13%     99.94%
system.cpu0.kern.mode_ticks_interrupt         3379200      0.06%    100.00%
system.cpu0.kern.swap_context                    6412                      
system.cpu0.kern.syscall                         1439                      
system.cpu0.kern.syscall_exit                      22      1.53%      1.53%
system.cpu0.kern.syscall_fork                      16      1.11%      2.64%
system.cpu0.kern.syscall_read                     104      7.23%      9.87%
system.cpu0.kern.syscall_write                    140      9.73%     19.60%
system.cpu0.kern.syscall_close                     99      6.88%     26.48%
system.cpu0.kern.syscall_chdir                      6      0.42%     26.89%
system.cpu0.kern.syscall_chmod                      1      0.07%     26.96%
system.cpu0.kern.syscall_obreak                    81      5.63%     32.59%
system.cpu0.kern.syscall_lseek                     14      0.97%     33.56%
system.cpu0.kern.syscall_getpid                    73      5.07%     38.64%
system.cpu0.kern.syscall_setuid                     6      0.42%     39.05%
system.cpu0.kern.syscall_getuid                    16      1.11%     40.17%
system.cpu0.kern.syscall_access                     4      0.28%     40.44%
system.cpu0.kern.syscall_kill                      37      2.57%     43.02%
system.cpu0.kern.syscall_dup                        4      0.28%     43.29%
system.cpu0.kern.syscall_pipe                       2      0.14%     43.43%
system.cpu0.kern.syscall_open                     134      9.31%     52.74%
system.cpu0.kern.syscall_getgid                    16      1.11%     53.86%
system.cpu0.kern.syscall_sigprocmask               97      6.74%     60.60%
system.cpu0.kern.syscall_ioctl                     36      2.50%     63.10%
system.cpu0.kern.syscall_readlink                   3      0.21%     63.31%
system.cpu0.kern.syscall_execve                    13      0.90%     64.21%
system.cpu0.kern.syscall_pre_F64_stat              48      3.34%     67.55%
system.cpu0.kern.syscall_pre_F64_lstat             57      3.96%     71.51%
system.cpu0.kern.syscall_mmap                     104      7.23%     78.74%
system.cpu0.kern.syscall_munmap                    33      2.29%     81.03%
system.cpu0.kern.syscall_mprotect                  39      2.71%     83.74%
system.cpu0.kern.syscall_gethostname                3      0.21%     83.95%
system.cpu0.kern.syscall_dup2                       3      0.21%     84.16%
system.cpu0.kern.syscall_pre_F64_fstat             45      3.13%     87.28%
system.cpu0.kern.syscall_fcntl                     23      1.60%     88.88%
system.cpu0.kern.syscall_poll                      43      2.99%     91.87%
system.cpu0.kern.syscall_socket                     4      0.28%     92.15%
system.cpu0.kern.syscall_connect                    4      0.28%     92.43%
system.cpu0.kern.syscall_sigreturn                 55      3.82%     96.25%
system.cpu0.kern.syscall_sigsuspend                37      2.57%     98.82%
system.cpu0.kern.syscall_setgid                     6      0.42%     99.24%
system.cpu0.kern.syscall_getrlimit                  4      0.28%     99.51%
system.cpu0.kern.syscall_setsid                     3      0.21%     99.72%
system.cpu0.kern.syscall_getsysinfo                 2      0.14%     99.86%
system.cpu0.kern.syscall_setsysinfo                 2      0.14%    100.00%
system.cpu0.numCycles                      5783836806                      
system.cpu0inst_class_dist.start_dist
                   All ops ready            0      0.00%           
                One op not ready            0      0.00%           
           None rdy, mult chains            0      0.00%           
           None rdy, one chained            0      0.00%           
        None rdy, all self-timed            0      0.00%           
system.cpu0inst_class_dist.end_dist
system.htbus.addr_idle_cycles              5782868431                      
system.htbus.addr_idle_fraction              0.999833                      
system.htbus.addr_queued                    37.068495                      
system.htbus.addr_queued_cycles               5292269                      
system.htbus.addr_requests                     142770                      
system.htbus.bus_blocked                            0                      
system.htbus.bus_blocked_cycles                     0                      
system.htbus.bus_blocked_fraction                   0                      
system.htbus.data_idle_cycles              5782767606                      
system.htbus.data_idle_fraction              0.999815                      
system.htbus.data_queued                            1                      
system.htbus.data_queued_cycles                 13262                      
system.htbus.data_requests                      13262                      
system.htbus.null_grants                            0                      
system.kern.fnCalls                                 0                      
system.l2.avg_blocked_cycles_no_mshrs    <err: div-0>                      
system.l2.avg_blocked_cycles_no_targets  <err: div-0>                      
system.l2.avg_refs                           2.744714                      
system.l2.blocked_no_mshrs                          0                      
system.l2.blocked_no_targets                        0                      
system.l2.blocked_cycles_no_mshrs                   0                      
system.l2.blocked_cycles_no_targets                 0                      
system.l2.cache_copies                              0                      
system.l2.demand_accesses                     3671287                      
system.l2.demand_avg_miss_latency           67.988524                      
system.l2.demand_avg_mshr_miss_latency      38.071282                      
system.l2.demand_hits                         2484017                      
system.l2.demand_miss_latency                80720735                      
system.l2.demand_miss_rate                   0.323393                      
system.l2.demand_misses                       1187270                      
system.l2.demand_mshr_hits                          0                      
system.l2.demand_mshr_miss_latency           45200891                      
system.l2.demand_mshr_miss_rate              0.323393                      
system.l2.demand_mshr_misses                  1187270                      
system.l2.fast_writes                               0                      
system.l2.mshr_cap_events                           0                      
system.l2.no_allocate_misses                        0                      
system.l2.overall_accesses                    4441593                      
system.l2.overall_avg_miss_latency          67.988524                      
system.l2.overall_avg_mshr_miss_latency     38.071282                      
system.l2.overall_avg_mshr_uncacheable_latency   155.857414                      
system.l2.overall_hits                        3254323                      
system.l2.overall_miss_latency               80720735                      
system.l2.overall_miss_rate                  0.267307                      
system.l2.overall_misses                      1187270                      
system.l2.overall_mshr_hits                         0                      
system.l2.overall_mshr_miss_latency          45200891                      
system.l2.overall_mshr_miss_rate             0.267307                      
system.l2.overall_mshr_misses                 1187270                      
system.l2.overall_mshr_uncacheable_latency      6654644                      
system.l2.overall_mshr_uncacheable_misses        42697                      
system.l2.prefetcher.num_hwpf_already_in_cache            0                      
system.l2.prefetcher.num_hwpf_already_in_mshr            0                      
system.l2.prefetcher.num_hwpf_already_in_prefetcher            0                      
system.l2.prefetcher.num_hwpf_evicted               0                      
system.l2.prefetcher.num_hwpf_identified            0                      
system.l2.prefetcher.num_hwpf_issued                0                      
system.l2.prefetcher.num_hwpf_removed_MSHR_hit            0                      
system.l2.prefetcher.num_hwpf_span_page             0                      
system.l2.prefetcher.num_hwpf_squashed_from_miss            0                      
system.l2.read_accesses                       3671287                      
system.l2.read_avg_miss_latency             67.988524                      
system.l2.read_avg_mshr_miss_latency        38.071282                      
system.l2.read_avg_mshr_uncacheable_latency   205.754182                      
system.l2.read_hits                           2484017                      
system.l2.read_miss_latency                  80720735                      
system.l2.read_miss_rate                     0.323393                      
system.l2.read_misses                         1187270                      
system.l2.read_mshr_miss_latency             45200891                      
system.l2.read_mshr_miss_rate                0.323393                      
system.l2.read_mshr_misses                    1187270                      
system.l2.read_mshr_uncacheable                 14527                      
system.l2.read_mshr_uncacheable_latency       2988991                      
system.l2.replacements                        1152776                      
system.l2.sampled_refs                        1185249                      
system.l2.soft_prefetch_mshr_full                   0                      
system.l2.tagsinuse                      31824.339041                      
system.l2.total_refs                          3253169                      
system.l2.warmup_cycle                        3594419                      
system.l2.write_avg_mshr_uncacheable_latency   130.126127                      
system.l2.write_mshr_uncacheable                28170                      
system.l2.write_mshr_uncacheable_latency      3665653                      
system.l2.writeback_accesses                   770306                      
system.l2.writeback_hits                       770306                      
system.l2.writebacks                           147974                      
system.l2bus.addr_idle_cycles              5779268205                      
system.l2bus.addr_idle_fraction              0.999210                      
system.l2bus.addr_queued                     3.996347                      
system.l2bus.addr_queued_cycles              18253496                      
system.l2bus.addr_requests                    4567545                      
system.l2bus.bus_blocked                          233                      
system.l2bus.bus_blocked_cycles                102070                      
system.l2bus.bus_blocked_fraction            0.000018                      
system.l2bus.data_idle_cycles              5779352412                      
system.l2bus.data_idle_fraction              0.999225                      
system.l2bus.data_queued                     1.020547                      
system.l2bus.data_queued_cycles               3761573                      
system.l2bus.data_requests                    3685841                      
system.l2bus.null_grants                        88589                      
system.membus.addr_idle_cycles             5782316034                      
system.membus.addr_idle_fraction             0.999737                      
system.membus.addr_queued                   26.919948                      
system.membus.addr_queued_cycles             40820494                      
system.membus.addr_requests                   1516366                      
system.membus.bus_blocked                           0                      
system.membus.bus_blocked_cycles                    0                      
system.membus.bus_blocked_fraction                  0                      
system.membus.data_idle_cycles             5778227763                      
system.membus.data_idle_fraction             0.999030                      
system.membus.data_queued                    2.168714                      
system.membus.data_queued_cycles              2606872                      
system.membus.data_requests                   1202036                      
system.membus.null_grants                           0                      
system.pcibus.addr_idle_cycles             5782536348                      
system.pcibus.addr_idle_fraction             0.999775                      
system.pcibus.addr_queued                  538.921552                      
system.pcibus.addr_queued_cycles             76941830                      
system.pcibus.addr_requests                    142770                      
system.pcibus.bus_blocked                        3439                      
system.pcibus.bus_blocked_cycles                79094                      
system.pcibus.bus_blocked_fraction           0.000014                      
system.pcibus.data_idle_cycles             5781617292                      
system.pcibus.data_idle_fraction             0.999616                      
system.pcibus.data_queued                    3.171844                      
system.pcibus.data_queued_cycles                42065                      
system.pcibus.data_requests                     13262                      
system.pcibus.null_grants                           0                      
system.ram.accesses                           1390491                      
system.ram.bytes_requested                          0                      
system.ram.bytes_sent                               0                      
system.ram.compressed_responses                     0                      
system.tsunami.etherdev0.coalescedRxDesc <err: div-0>                      
system.tsunami.etherdev0.coalescedRxIdle <err: div-0>                      
system.tsunami.etherdev0.coalescedRxOk   <err: div-0>                      
system.tsunami.etherdev0.coalescedRxOrn  <err: div-0>                      
system.tsunami.etherdev0.coalescedSwi    <err: div-0>                      
system.tsunami.etherdev0.coalescedTotal  <err: div-0>                      
system.tsunami.etherdev0.coalescedTxDesc <err: div-0>                      
system.tsunami.etherdev0.coalescedTxIdle <err: div-0>                      
system.tsunami.etherdev0.coalescedTxOk   <err: div-0>                      
system.tsunami.etherdev0.descDMAReads               0                      
system.tsunami.etherdev0.descDMAWrites              0                      
system.tsunami.etherdev0.descDmaReadBytes            0                      
system.tsunami.etherdev0.descDmaWriteBytes            0                      
system.tsunami.etherdev0.dma.avg_large_transaction_latency <err: div-0>                      
system.tsunami.etherdev0.dma.avg_small_transaction_latency <err: div-0>                      
system.tsunami.etherdev0.dma.avg_transaction_latency <err: div-0>                      
system.tsunami.etherdev0.dma.bytes_transfered            0                      
system.tsunami.etherdev0.dma.large_transaction_latency            0                      
system.tsunami.etherdev0.dma.large_transactions            0                      
system.tsunami.etherdev0.dma.packets_sent            0                      
system.tsunami.etherdev0.dma.requests               0                      
system.tsunami.etherdev0.dma.round_trip_latency <err: div-0>                      
system.tsunami.etherdev0.dma.small_transaction_latency            0                      
system.tsunami.etherdev0.dma.small_transactions            0                      
system.tsunami.etherdev0.dma.total_cycle_latency            0                      
system.tsunami.etherdev0.dma.transaction_latency            0                      
system.tsunami.etherdev0.droppedPackets             0                      
system.tsunami.etherdev0.postedInterrupts            0                      
system.tsunami.etherdev0.postedRxDesc               0                      
system.tsunami.etherdev0.postedRxIdle               0                      
system.tsunami.etherdev0.postedRxOk                 0                      
system.tsunami.etherdev0.postedRxOrn                0                      
system.tsunami.etherdev0.postedSwi                  0                      
system.tsunami.etherdev0.postedTxDesc               0                      
system.tsunami.etherdev0.postedTxIdle               0                      
system.tsunami.etherdev0.postedTxOk                 0                      
system.tsunami.etherdev0.totalRxDesc                0                      
system.tsunami.etherdev0.totalRxIdle                0                      
system.tsunami.etherdev0.totalRxOk                  0                      
system.tsunami.etherdev0.totalRxOrn                 0                      
system.tsunami.etherdev0.totalSwi                   0                      
system.tsunami.etherdev0.totalTxDesc                0                      
system.tsunami.etherdev0.totalTxIdle                0                      
system.tsunami.etherdev0.totalTxOk                  0                      
system.tsunami.ide.dma.avg_large_transaction_latency  2774.679702                      
system.tsunami.ide.dma.avg_small_transaction_latency   228.255605                      
system.tsunami.ide.dma.avg_transaction_latency  2027.505263                      
system.tsunami.ide.dma.bytes_transfered       3535144                      
system.tsunami.ide.dma.large_transaction_latency      1490003                      
system.tsunami.ide.dma.large_transactions          537                      
system.tsunami.ide.dma.packets_sent             55247                      
system.tsunami.ide.dma.requests                   760                      
system.tsunami.ide.dma.round_trip_latency  1598.656380                      
system.tsunami.ide.dma.small_transaction_latency        50901                      
system.tsunami.ide.dma.small_transactions          223                      
system.tsunami.ide.dma.total_cycle_latency     88320969                      
system.tsunami.ide.dma.transaction_latency      1540904                      

---------- End Simulation Statistics   ----------
