system.cpu0.POWER.DYNAMIC:bpred_block_average     0.272774                      
system.cpu0.POWER.DYNAMIC:dcache_block_average     0.686596                      
system.cpu0.POWER.DYNAMIC:dtlb_block_average     0.007954                      
system.cpu0.POWER.DYNAMIC:fpalu_block_average     0.191688                      
system.cpu0.POWER.DYNAMIC:fpmap_block_average     0.021895                      
system.cpu0.POWER.DYNAMIC:fpmul_block_average     0.191664                      
system.cpu0.POWER.DYNAMIC:fpq_block_average     0.115352                      
system.cpu0.POWER.DYNAMIC:fpreg_block_average     0.073266                      
system.cpu0.POWER.DYNAMIC:icache_block_average     0.546052                      
system.cpu0.POWER.DYNAMIC:intalu_block_average     0.642414                      
system.cpu0.POWER.DYNAMIC:intmap_block_average     0.032243                      
system.cpu0.POWER.DYNAMIC:intq_block_average     0.251768                      
system.cpu0.POWER.DYNAMIC:intreg_block_average     0.246048                      
system.cpu0.POWER.DYNAMIC:itlb_block_average     0.006326                      
system.cpu0.POWER.DYNAMIC:lsq_block_average     0.089980                      





---------- Begin Simulation Statistics ----------
host_inst_rate                                  31351                      
host_mem_usage                                 195916                      
host_seconds                                  4139.09                      
host_tick_rate                                 169973                      
sim_freq                                    300000000                      
sim_insts                                   129762876                      
sim_seconds                                  2.345112                      
sim_ticks                                   703533687                      
system.cpu0.COM:IPB                          5.240587                      
system.cpu0.COM:IPC                          0.184444                      
system.cpu0.COM:branches                     24761133                      
system.cpu0.COM:bw_lim_avg               <err: div-0>                      
system.cpu0.COM:bw_lim_events                       0                      
system.cpu0.COM:bw_lim_rate                    0.0000                      
system.cpu0.COM:bw_lim_stdev_0_mean      <err: div-0>                      
system.cpu0.COM:bw_lim_stdev_0_stdev     <err: div-0>                      
**Ignore: system.cpu0.COM:bw_lim_stdev_0_TOT       0.0000                      
system.cpu0.COM:bw_limited                          0                      
system.cpu0.COM:committed_per_cycle.start_dist
system.cpu0.COM:committed_per_cycle.samples     44251041                      
system.cpu0.COM:committed_per_cycle.min_value            0                      
                               0       403132     91.10%           
                               1     10090823   2280.36%           
                               2      5900732   1333.47%           
                               3      3341990    755.23%           
                               4     24514364   5539.84%           
system.cpu0.COM:committed_per_cycle.max_value            4                      
system.cpu0.COM:committed_per_cycle.end_dist

system.cpu0.COM:count                       129762876                      
system.cpu0.COM:loads                        17298221                      
system.cpu0.COM:membars                        307287                      
system.cpu0.COM:refs                         28262326                      
system.cpu0.COM:stores                       10964105                      
system.cpu0.COM:swp_count                      212837                      
system.cpu0.DDQ:count                      8996658102                      
system.cpu0.DDQ:rate                               13                      
system.cpu0.DIS:chain_creation.start_dist
     Inst has no outstanding IDEPS            0      0.00%           
      IDEP chain reached max depth            0      0.00%           
                    Inst is a load            0      0.00%           
  Chain has multiple chained IDEPS            0      0.00%           
system.cpu0.DIS:chain_creation.end_dist
system.cpu0.DIS:chain_head_frac                     0                      
system.cpu0.DIS:chain_heads                         0                      
system.cpu0.DIS:chains_insuf                        0                      
system.cpu0.DIS:chains_insuf_rate                   0                      
system.cpu0.DIS:count                       151526850                      
system.cpu0.DIS:insufficient_chains                 0                      
system.cpu0.DIS:mod_n_stall_avg_free     <err: div-0>                      
system.cpu0.DIS:mod_n_stall_frac                    0                      
system.cpu0.DIS:mod_n_stall_free                    0                      
system.cpu0.DIS:mod_n_stalls                        0                      
system.cpu0.DIS:one_rdy_insts                       0                      
system.cpu0.DIS:one_rdy_ratio            <err: div-0>                      
system.cpu0.DIS:op_count                    185628663                      
system.cpu0.DIS:op_rate                      0.263852                      
system.cpu0.DIS:rate                         0.215380                      
system.cpu0.DIS:second_choice_clust                 0                      
system.cpu0.DIS:second_choice_stall                 0                      
system.cpu0.DIS:serialize_stall_cycles        9455877                      
system.cpu0.DIS:serializing_insts              294757                      
system.cpu0.DIS:two_input_insts                     0                      
system.cpu0.DIS:two_input_ratio                     0                      
system.cpu0.FETCH:branch_count               41780099                      
system.cpu0.FETCH:branch_rate                0.059386                      
system.cpu0.FETCH:chance_pct                        1                      
system.cpu0.FETCH:chances                    61262994                      
system.cpu0.FETCH:choice                     61262994                      
system.cpu0.FETCH:count                     214519090                      
system.cpu0.FETCH:decisions                  61262994                      
system.cpu0.FETCH:idle_cycles               642270694                      
system.cpu0.FETCH:idle_icache_blocked_cycles            0                      
system.cpu0.FETCH:idle_rate                     91.29                      
system.cpu0.FETCH:prio_changes                      0                      
system.cpu0.FETCH:rate                       0.304917                      
system.cpu0.FETCH:rate_dist.start_dist    
system.cpu0.FETCH:rate_dist.samples          61262994                      
system.cpu0.FETCH:rate_dist.min_value               0                      
                               0       195745     31.95%           
                               1      5533389    903.22%           
                               2      2917251    476.18%           
                               3      7315237   1194.07%           
                               4     45301372   7394.57%           
system.cpu0.FETCH:rate_dist.max_value               4                      
system.cpu0.FETCH:rate_dist.end_dist

system.cpu0.FETCH:rate_dist_0.start_dist  
system.cpu0.FETCH:rate_dist_0.samples        61262994                      
system.cpu0.FETCH:rate_dist_0.min_value             0                      
                               0       195745     31.95%           
                               1      5533389    903.22%           
                               2      2917251    476.18%           
                               3      7315237   1194.07%           
                               4     45301372   7394.57%           
system.cpu0.FETCH:rate_dist_0.max_value             4                      
system.cpu0.FETCH:rate_dist_0.end_dist

system.cpu0.IFQ:count                      3784598841                      
system.cpu0.IFQ:full_count                  108731171                      
system.cpu0.IFQ:full_rate                   15.455006                      
system.cpu0.IFQ:latency                     24.976424                      
system.cpu0.IFQ:occupancy                    5.379414                      
system.cpu0.IFQ:qfull_iq_occ               5315723712                      
system.cpu0.IFQ:qfull_iq_occ_dist_0.start_dist
system.cpu0.IFQ:qfull_iq_occ_dist_0.samples     90313034                      
system.cpu0.IFQ:qfull_iq_occ_dist_0.min_value            0                      
                               0      5762567    638.07%           
                              10       757289     83.85%           
                              20       612771     67.85%           
                              30       703796     77.93%           
                              40       883609     97.84%           
                              50       804570     89.09%           
                              60     80788432   8945.38%           
system.cpu0.IFQ:qfull_iq_occ_dist_0.max_value           64                      
system.cpu0.IFQ:qfull_iq_occ_dist_0.end_dist

system.cpu0.IFQ:qfull_rob_occ              8242356878                      
system.cpu0.IFQ:qfull_rob_occ_dist_0.start_dist
system.cpu0.IFQ:qfull_rob_occ_dist_0.samples     90313034                      
system.cpu0.IFQ:qfull_rob_occ_dist_0.min_value            1                      
                               0      1295178    143.41%           
                              10      1752655    194.06%           
                              20      1163210    128.80%           
                              30       454631     50.34%           
                              40       281891     31.21%           
                              50       191863     21.24%           
                              60      5661042    626.82%           
                              70      1432860    158.65%           
                              80       648329     71.79%           
                              90     73216601   8106.98%           
                             100       868678     96.19%           
                             110      1207321    133.68%           
                             120      2138775    236.82%           
                             130            0      0.00%           
system.cpu0.IFQ:qfull_rob_occ_dist_0.max_value          128                      
system.cpu0.IFQ:qfull_rob_occ_dist_0.end_dist

system.cpu0.IQ:cap_events                           0                      
system.cpu0.IQ:cap_inst                             0                      
system.cpu0.IQ:residence:(null).start_dist
system.cpu0.IQ:residence:(null).samples          9545                      
system.cpu0.IQ:residence:(null).min_value            1                      
                               0         8599   9008.91%   9008.91%
                               2          626    655.84%   9664.75%
                               4          143    149.82%   9814.56%
                               6           31     32.48%   9847.04%
                               8          127    133.05%   9980.09%
                              10            5      5.24%   9985.33%
                              12            3      3.14%   9988.48%
                              14            1      1.05%   9989.52%
                              16            4      4.19%   9993.71%
                              18            1      1.05%   9994.76%
                              20            4      4.19%   9998.95%
                              22            1      1.05%  10000.00%
                              24            0      0.00%  10000.00%
                              26            0      0.00%  10000.00%
                              28            0      0.00%  10000.00%
                              30            0      0.00%  10000.00%
                              32            0      0.00%  10000.00%
                              34            0      0.00%  10000.00%
                              36            0      0.00%  10000.00%
                              38            0      0.00%  10000.00%
                              40            0      0.00%  10000.00%
                              42            0      0.00%  10000.00%
                              44            0      0.00%  10000.00%
                              46            0      0.00%  10000.00%
                              48            0      0.00%  10000.00%
                              50            0      0.00%  10000.00%
                              52            0      0.00%  10000.00%
                              54            0      0.00%  10000.00%
                              56            0      0.00%  10000.00%
                              58            0      0.00%  10000.00%
                              60            0      0.00%  10000.00%
                              62            0      0.00%  10000.00%
                              64            0      0.00%  10000.00%
                              66            0      0.00%  10000.00%
                              68            0      0.00%  10000.00%
                              70            0      0.00%  10000.00%
                              72            0      0.00%  10000.00%
                              74            0      0.00%  10000.00%
                              76            0      0.00%  10000.00%
                              78            0      0.00%  10000.00%
                              80            0      0.00%  10000.00%
                              82            0      0.00%  10000.00%
                              84            0      0.00%  10000.00%
                              86            0      0.00%  10000.00%
                              88            0      0.00%  10000.00%
                              90            0      0.00%  10000.00%
                              92            0      0.00%  10000.00%
                              94            0      0.00%  10000.00%
                              96            0      0.00%  10000.00%
                              98            0      0.00%  10000.00%
system.cpu0.IQ:residence:(null).max_value           23                      
system.cpu0.IQ:residence:(null).end_dist

system.cpu0.IQ:residence:IntAlu.start_dist
system.cpu0.IQ:residence:IntAlu.samples     106795385                      
system.cpu0.IQ:residence:IntAlu.min_value            1                      
                               0     28443101   2663.33%   2663.33%
                               2     27597607   2584.16%   5247.48%
                               4      6555236    613.81%   5861.30%
                               6      5191939    486.16%   6347.45%
                               8      4122444    386.01%   6733.47%
                              10      2748744    257.38%   6990.85%
                              12      2328828    218.06%   7208.92%
                              14      2584839    242.04%   7450.95%
                              16      3114881    291.67%   7742.62%
                              18      2538555    237.70%   7980.32%
                              20      2678288    250.79%   8231.11%
                              22      3286070    307.70%   8538.81%
                              24      1930273    180.74%   8719.55%
                              26       988972     92.60%   8812.16%
                              28       611071     57.22%   8869.38%
                              30       607873     56.92%   8926.30%
                              32       548896     51.40%   8977.69%
                              34       452126     42.34%   9020.03%
                              36       546001     51.13%   9071.15%
                              38       491660     46.04%   9117.19%
                              40       428906     40.16%   9157.35%
                              42       331371     31.03%   9188.38%
                              44       343397     32.15%   9220.54%
                              46       302207     28.30%   9248.83%
                              48       244629     22.91%   9271.74%
                              50       239580     22.43%   9294.17%
                              52       244354     22.88%   9317.06%
                              54       251137     23.52%   9340.57%
                              56       107771     10.09%   9350.66%
                              58       132800     12.43%   9363.10%
                              60       118279     11.08%   9374.17%
                              62       212551     19.90%   9394.08%
                              64       121450     11.37%   9405.45%
                              66       107112     10.03%   9415.48%
                              68       111182     10.41%   9425.89%
                              70        73294      6.86%   9432.75%
                              72        77577      7.26%   9440.01%
                              74        59844      5.60%   9445.62%
                              76        83910      7.86%   9453.48%
                              78       101437      9.50%   9462.97%
                              80        47550      4.45%   9467.43%
                              82        50121      4.69%   9472.12%
                              84        50266      4.71%   9476.83%
                              86        56077      5.25%   9482.08%
                              88        69249      6.48%   9488.56%
                              90        74059      6.93%   9495.50%
                              92        53542      5.01%   9500.51%
                              94        35897      3.36%   9503.87%
                              96        36972      3.46%   9507.33%
                              98        64316      6.02%   9513.36%
system.cpu0.IQ:residence:IntAlu.overflows      5197144                      
system.cpu0.IQ:residence:IntAlu.max_value        19711                      
system.cpu0.IQ:residence:IntAlu.end_dist

system.cpu0.IQ:residence:IntMult.start_dist
system.cpu0.IQ:residence:IntMult.samples       386007                      
system.cpu0.IQ:residence:IntMult.min_value            1                      
                               0         6997    181.27%    181.27%
                               2         5035    130.44%    311.70%
                               4        11005    285.10%    596.80%
                               6         7146    185.13%    781.93%
                               8         8260    213.99%    995.91%
                              10         7420    192.22%   1188.14%
                              12         6106    158.18%   1346.32%
                              14         8195    212.30%   1558.62%
                              16         8279    214.48%   1773.10%
                              18        18115    469.29%   2242.39%
                              20        91647   2374.23%   4616.63%
                              22       119139   3086.45%   7703.07%
                              24        48349   1252.54%   8955.61%
                              26         4258    110.31%   9065.92%
                              28          414     10.73%   9076.65%
                              30         3246     84.09%   9160.74%
                              32         2904     75.23%   9235.97%
                              34         2941     76.19%   9312.16%
                              36         3512     90.98%   9403.15%
                              38         2338     60.57%   9463.71%
                              40         9590    248.44%   9712.16%
                              42         1160     30.05%   9742.21%
                              44          288      7.46%   9749.67%
                              46          122      3.16%   9752.83%
                              48          554     14.35%   9767.18%
                              50          269      6.97%   9774.15%
                              52          183      4.74%   9778.89%
                              54          598     15.49%   9794.38%
                              56          443     11.48%   9805.86%
                              58          114      2.95%   9808.81%
                              60           20      0.52%   9809.33%
                              62           33      0.85%   9810.18%
                              64           38      0.98%   9811.17%
                              66           70      1.81%   9812.98%
                              68           96      2.49%   9815.47%
                              70          286      7.41%   9822.88%
                              72          331      8.57%   9831.45%
                              74          213      5.52%   9836.97%
                              76           81      2.10%   9839.07%
                              78          116      3.01%   9842.08%
                              80          107      2.77%   9844.85%
                              82          115      2.98%   9847.83%
                              84           57      1.48%   9849.30%
                              86           12      0.31%   9849.61%
                              88           37      0.96%   9850.57%
                              90           17      0.44%   9851.01%
                              92            6      0.16%   9851.17%
                              94           16      0.41%   9851.58%
                              96            7      0.18%   9851.76%
                              98           12      0.31%   9852.08%
system.cpu0.IQ:residence:IntMult.overflows         5710                      
system.cpu0.IQ:residence:IntMult.max_value          623                      
system.cpu0.IQ:residence:IntMult.end_dist

system.cpu0.IQ:residence:IntDiv.start_dist
system.cpu0.IQ:residence:IntDiv.samples             0                      
system.cpu0.IQ:residence:IntDiv.min_value            0                      
                               0            0                      
                               2            0                      
                               4            0                      
                               6            0                      
                               8            0                      
                              10            0                      
                              12            0                      
                              14            0                      
                              16            0                      
                              18            0                      
                              20            0                      
                              22            0                      
                              24            0                      
                              26            0                      
                              28            0                      
                              30            0                      
                              32            0                      
                              34            0                      
                              36            0                      
                              38            0                      
                              40            0                      
                              42            0                      
                              44            0                      
                              46            0                      
                              48            0                      
                              50            0                      
                              52            0                      
                              54            0                      
                              56            0                      
                              58            0                      
                              60            0                      
                              62            0                      
                              64            0                      
                              66            0                      
                              68            0                      
                              70            0                      
                              72            0                      
                              74            0                      
                              76            0                      
                              78            0                      
                              80            0                      
                              82            0                      
                              84            0                      
                              86            0                      
                              88            0                      
                              90            0                      
                              92            0                      
                              94            0                      
                              96            0                      
                              98            0                      
system.cpu0.IQ:residence:IntDiv.max_value            0                      
system.cpu0.IQ:residence:IntDiv.end_dist

system.cpu0.IQ:residence:FloatAdd.start_dist
system.cpu0.IQ:residence:FloatAdd.samples         9858                      
system.cpu0.IQ:residence:FloatAdd.min_value            1                      
                               0          128    129.84%    129.84%
                               2          214    217.08%    346.93%
                               4          160    162.30%    509.23%
                               6         2310   2343.27%   2852.51%
                               8           30     30.43%   2882.94%
                              10          564    572.12%   3455.06%
                              12          869    881.52%   4336.58%
                              14          353    358.08%   4694.66%
                              16         2435   2470.08%   7164.74%
                              18            4      4.06%   7168.80%
                              20            0      0.00%   7168.80%
                              22            1      1.01%   7169.81%
                              24            2      2.03%   7171.84%
                              26            0      0.00%   7171.84%
                              28            0      0.00%   7171.84%
                              30            0      0.00%   7171.84%
                              32            4      4.06%   7175.90%
                              34           43     43.62%   7219.52%
                              36         1891   1918.24%   9137.76%
                              38          844    856.16%   9993.91%
                              40            0      0.00%   9993.91%
                              42            0      0.00%   9993.91%
                              44            0      0.00%   9993.91%
                              46            0      0.00%   9993.91%
                              48            0      0.00%   9993.91%
                              50            0      0.00%   9993.91%
                              52            0      0.00%   9993.91%
                              54            0      0.00%   9993.91%
                              56            0      0.00%   9993.91%
                              58            0      0.00%   9993.91%
                              60            0      0.00%   9993.91%
                              62            0      0.00%   9993.91%
                              64            0      0.00%   9993.91%
                              66            0      0.00%   9993.91%
                              68            0      0.00%   9993.91%
                              70            1      1.01%   9994.93%
                              72            0      0.00%   9994.93%
                              74            0      0.00%   9994.93%
                              76            0      0.00%   9994.93%
                              78            0      0.00%   9994.93%
                              80            0      0.00%   9994.93%
                              82            4      4.06%   9998.99%
                              84            0      0.00%   9998.99%
                              86            0      0.00%   9998.99%
                              88            0      0.00%   9998.99%
                              90            1      1.01%  10000.00%
                              92            0      0.00%  10000.00%
                              94            0      0.00%  10000.00%
                              96            0      0.00%  10000.00%
                              98            0      0.00%  10000.00%
system.cpu0.IQ:residence:FloatAdd.max_value           91                      
system.cpu0.IQ:residence:FloatAdd.end_dist

system.cpu0.IQ:residence:FloatCmp.start_dist
system.cpu0.IQ:residence:FloatCmp.samples            0                      
system.cpu0.IQ:residence:FloatCmp.min_value            0                      
                               0            0                      
                               2            0                      
                               4            0                      
                               6            0                      
                               8            0                      
                              10            0                      
                              12            0                      
                              14            0                      
                              16            0                      
                              18            0                      
                              20            0                      
                              22            0                      
                              24            0                      
                              26            0                      
                              28            0                      
                              30            0                      
                              32            0                      
                              34            0                      
                              36            0                      
                              38            0                      
                              40            0                      
                              42            0                      
                              44            0                      
                              46            0                      
                              48            0                      
                              50            0                      
                              52            0                      
                              54            0                      
                              56            0                      
                              58            0                      
                              60            0                      
                              62            0                      
                              64            0                      
                              66            0                      
                              68            0                      
                              70            0                      
                              72            0                      
                              74            0                      
                              76            0                      
                              78            0                      
                              80            0                      
                              82            0                      
                              84            0                      
                              86            0                      
                              88            0                      
                              90            0                      
                              92            0                      
                              94            0                      
                              96            0                      
                              98            0                      
system.cpu0.IQ:residence:FloatCmp.max_value            0                      
system.cpu0.IQ:residence:FloatCmp.end_dist

system.cpu0.IQ:residence:FloatCvt.start_dist
system.cpu0.IQ:residence:FloatCvt.samples            0                      
system.cpu0.IQ:residence:FloatCvt.min_value            0                      
                               0            0                      
                               2            0                      
                               4            0                      
                               6            0                      
                               8            0                      
                              10            0                      
                              12            0                      
                              14            0                      
                              16            0                      
                              18            0                      
                              20            0                      
                              22            0                      
                              24            0                      
                              26            0                      
                              28            0                      
                              30            0                      
                              32            0                      
                              34            0                      
                              36            0                      
                              38            0                      
                              40            0                      
                              42            0                      
                              44            0                      
                              46            0                      
                              48            0                      
                              50            0                      
                              52            0                      
                              54            0                      
                              56            0                      
                              58            0                      
                              60            0                      
                              62            0                      
                              64            0                      
                              66            0                      
                              68            0                      
                              70            0                      
                              72            0                      
                              74            0                      
                              76            0                      
                              78            0                      
                              80            0                      
                              82            0                      
                              84            0                      
                              86            0                      
                              88            0                      
                              90            0                      
                              92            0                      
                              94            0                      
                              96            0                      
                              98            0                      
system.cpu0.IQ:residence:FloatCvt.max_value            0                      
system.cpu0.IQ:residence:FloatCvt.end_dist

system.cpu0.IQ:residence:FloatMult.start_dist
system.cpu0.IQ:residence:FloatMult.samples            3                      
system.cpu0.IQ:residence:FloatMult.min_value            5                      
                               0            0      0.00%      0.00%
                               2            0      0.00%      0.00%
                               4            2   6666.67%   6666.67%
                               6            0      0.00%   6666.67%
                               8            0      0.00%   6666.67%
                              10            1   3333.33%  10000.00%
                              12            0      0.00%  10000.00%
                              14            0      0.00%  10000.00%
                              16            0      0.00%  10000.00%
                              18            0      0.00%  10000.00%
                              20            0      0.00%  10000.00%
                              22            0      0.00%  10000.00%
                              24            0      0.00%  10000.00%
                              26            0      0.00%  10000.00%
                              28            0      0.00%  10000.00%
                              30            0      0.00%  10000.00%
                              32            0      0.00%  10000.00%
                              34            0      0.00%  10000.00%
                              36            0      0.00%  10000.00%
                              38            0      0.00%  10000.00%
                              40            0      0.00%  10000.00%
                              42            0      0.00%  10000.00%
                              44            0      0.00%  10000.00%
                              46            0      0.00%  10000.00%
                              48            0      0.00%  10000.00%
                              50            0      0.00%  10000.00%
                              52            0      0.00%  10000.00%
                              54            0      0.00%  10000.00%
                              56            0      0.00%  10000.00%
                              58            0      0.00%  10000.00%
                              60            0      0.00%  10000.00%
                              62            0      0.00%  10000.00%
                              64            0      0.00%  10000.00%
                              66            0      0.00%  10000.00%
                              68            0      0.00%  10000.00%
                              70            0      0.00%  10000.00%
                              72            0      0.00%  10000.00%
                              74            0      0.00%  10000.00%
                              76            0      0.00%  10000.00%
                              78            0      0.00%  10000.00%
                              80            0      0.00%  10000.00%
                              82            0      0.00%  10000.00%
                              84            0      0.00%  10000.00%
                              86            0      0.00%  10000.00%
                              88            0      0.00%  10000.00%
                              90            0      0.00%  10000.00%
                              92            0      0.00%  10000.00%
                              94            0      0.00%  10000.00%
                              96            0      0.00%  10000.00%
                              98            0      0.00%  10000.00%
system.cpu0.IQ:residence:FloatMult.max_value           11                      
system.cpu0.IQ:residence:FloatMult.end_dist

system.cpu0.IQ:residence:FloatDiv.start_dist
system.cpu0.IQ:residence:FloatDiv.samples           60                      
system.cpu0.IQ:residence:FloatDiv.min_value            6                      
                               0            0      0.00%      0.00%
                               2            0      0.00%      0.00%
                               4            0      0.00%      0.00%
                               6           59   9833.33%   9833.33%
                               8            0      0.00%   9833.33%
                              10            0      0.00%   9833.33%
                              12            0      0.00%   9833.33%
                              14            0      0.00%   9833.33%
                              16            0      0.00%   9833.33%
                              18            0      0.00%   9833.33%
                              20            0      0.00%   9833.33%
                              22            0      0.00%   9833.33%
                              24            0      0.00%   9833.33%
                              26            1    166.67%  10000.00%
                              28            0      0.00%  10000.00%
                              30            0      0.00%  10000.00%
                              32            0      0.00%  10000.00%
                              34            0      0.00%  10000.00%
                              36            0      0.00%  10000.00%
                              38            0      0.00%  10000.00%
                              40            0      0.00%  10000.00%
                              42            0      0.00%  10000.00%
                              44            0      0.00%  10000.00%
                              46            0      0.00%  10000.00%
                              48            0      0.00%  10000.00%
                              50            0      0.00%  10000.00%
                              52            0      0.00%  10000.00%
                              54            0      0.00%  10000.00%
                              56            0      0.00%  10000.00%
                              58            0      0.00%  10000.00%
                              60            0      0.00%  10000.00%
                              62            0      0.00%  10000.00%
                              64            0      0.00%  10000.00%
                              66            0      0.00%  10000.00%
                              68            0      0.00%  10000.00%
                              70            0      0.00%  10000.00%
                              72            0      0.00%  10000.00%
                              74            0      0.00%  10000.00%
                              76            0      0.00%  10000.00%
                              78            0      0.00%  10000.00%
                              80            0      0.00%  10000.00%
                              82            0      0.00%  10000.00%
                              84            0      0.00%  10000.00%
                              86            0      0.00%  10000.00%
                              88            0      0.00%  10000.00%
                              90            0      0.00%  10000.00%
                              92            0      0.00%  10000.00%
                              94            0      0.00%  10000.00%
                              96            0      0.00%  10000.00%
                              98            0      0.00%  10000.00%
system.cpu0.IQ:residence:FloatDiv.max_value           27                      
system.cpu0.IQ:residence:FloatDiv.end_dist

system.cpu0.IQ:residence:FloatSqrt.start_dist
system.cpu0.IQ:residence:FloatSqrt.samples            0                      
system.cpu0.IQ:residence:FloatSqrt.min_value            0                      
                               0            0                      
                               2            0                      
                               4            0                      
                               6            0                      
                               8            0                      
                              10            0                      
                              12            0                      
                              14            0                      
                              16            0                      
                              18            0                      
                              20            0                      
                              22            0                      
                              24            0                      
                              26            0                      
                              28            0                      
                              30            0                      
                              32            0                      
                              34            0                      
                              36            0                      
                              38            0                      
                              40            0                      
                              42            0                      
                              44            0                      
                              46            0                      
                              48            0                      
                              50            0                      
                              52            0                      
                              54            0                      
                              56            0                      
                              58            0                      
                              60            0                      
                              62            0                      
                              64            0                      
                              66            0                      
                              68            0                      
                              70            0                      
                              72            0                      
                              74            0                      
                              76            0                      
                              78            0                      
                              80            0                      
                              82            0                      
                              84            0                      
                              86            0                      
                              88            0                      
                              90            0                      
                              92            0                      
                              94            0                      
                              96            0                      
                              98            0                      
system.cpu0.IQ:residence:FloatSqrt.max_value            0                      
system.cpu0.IQ:residence:FloatSqrt.end_dist

system.cpu0.IQ:residence:MemRead.start_dist
system.cpu0.IQ:residence:MemRead.samples     38395887                      
system.cpu0.IQ:residence:MemRead.min_value            1                      
                               0      4076705   1061.76%   1061.76%
                               2      6378955   1661.36%   2723.12%
                               4      3235889    842.77%   3565.89%
                               6      2627893    684.42%   4250.31%
                               8      1925761    501.55%   4751.86%
                              10      1592090    414.65%   5166.52%
                              12      1174808    305.97%   5472.49%
                              14      1039390    270.70%   5743.19%
                              16      1153475    300.42%   6043.61%
                              18      1698239    442.30%   6485.90%
                              20      2378106    619.36%   7105.27%
                              22      3055623    795.82%   7901.09%
                              24       994375    258.98%   8160.07%
                              26       238367     62.08%   8222.15%
                              28       200734     52.28%   8274.43%
                              30       157139     40.93%   8315.36%
                              32       139163     36.24%   8351.60%
                              34       211813     55.17%   8406.77%
                              36       245628     63.97%   8470.74%
                              38       244115     63.58%   8534.32%
                              40       174948     45.56%   8579.88%
                              42       183968     47.91%   8627.79%
                              44       133036     34.65%   8662.44%
                              46       173854     45.28%   8707.72%
                              48        82766     21.56%   8729.28%
                              50       118937     30.98%   8760.26%
                              52        78135     20.35%   8780.61%
                              54        93471     24.34%   8804.95%
                              56        41416     10.79%   8815.74%
                              58        47483     12.37%   8828.10%
                              60        74916     19.51%   8847.61%
                              62        70371     18.33%   8865.94%
                              64       136480     35.55%   8901.49%
                              66        53141     13.84%   8915.33%
                              68        38463     10.02%   8925.34%
                              70        29107      7.58%   8932.93%
                              72        38458     10.02%   8942.94%
                              74        32491      8.46%   8951.40%
                              76        27959      7.28%   8958.69%
                              78        64946     16.91%   8975.60%
                              80        38248      9.96%   8985.56%
                              82        26837      6.99%   8992.55%
                              84        40518     10.55%   9003.10%
                              86        50873     13.25%   9016.35%
                              88        20321      5.29%   9021.65%
                              90        25615      6.67%   9028.32%
                              92        20916      5.45%   9033.76%
                              94        26923      7.01%   9040.78%
                              96        17357      4.52%   9045.30%
                              98         8694      2.26%   9047.56%
system.cpu0.IQ:residence:MemRead.overflows      3656971                      
system.cpu0.IQ:residence:MemRead.max_value        19706                      
system.cpu0.IQ:residence:MemRead.end_dist

system.cpu0.IQ:residence:MemWrite.start_dist
system.cpu0.IQ:residence:MemWrite.samples     23075689                      
system.cpu0.IQ:residence:MemWrite.min_value            1                      
                               0      2109810    914.30%    914.30%
                               2      4147087   1797.17%   2711.47%
                               4      2421886   1049.54%   3761.01%
                               6      1989461    862.15%   4623.15%
                               8      1515929    656.94%   5280.09%
                              10       935244    405.29%   5685.38%
                              12       718828    311.51%   5996.89%
                              14       643421    278.83%   6275.72%
                              16       718349    311.30%   6587.03%
                              18       952337    412.70%   6999.73%
                              20      1270906    550.76%   7550.48%
                              22      1830915    793.44%   8343.92%
                              24       989539    428.82%   8772.74%
                              26       242354    105.03%   8877.77%
                              28       185638     80.45%   8958.22%
                              30       130356     56.49%   9014.71%
                              32       182651     79.15%   9093.86%
                              34       183464     79.51%   9173.37%
                              36       216690     93.90%   9267.27%
                              38       163263     70.75%   9338.02%
                              40       157786     68.38%   9406.40%
                              42       115067     49.87%   9456.26%
                              44       107670     46.66%   9502.92%
                              46        68596     29.73%   9532.65%
                              48        53786     23.31%   9555.96%
                              50       151903     65.83%   9621.79%
                              52        67112     29.08%   9650.87%
                              54        35211     15.26%   9666.13%
                              56        30234     13.10%   9679.23%
                              58        22779      9.87%   9689.10%
                              60        43758     18.96%   9708.07%
                              62        74739     32.39%   9740.45%
                              64       121358     52.59%   9793.05%
                              66        21727      9.42%   9802.46%
                              68        14342      6.22%   9808.68%
                              70        21144      9.16%   9817.84%
                              72        25385     11.00%   9828.84%
                              74        17011      7.37%   9836.21%
                              76        33376     14.46%   9850.68%
                              78        40270     17.45%   9868.13%
                              80        32704     14.17%   9882.30%
                              82        18504      8.02%   9890.32%
                              84        11175      4.84%   9895.16%
                              86         8073      3.50%   9898.66%
                              88        16360      7.09%   9905.75%
                              90        10363      4.49%   9910.24%
                              92        11692      5.07%   9915.31%
                              94         6249      2.71%   9918.01%
                              96         6859      2.97%   9920.99%
                              98         7462      3.23%   9924.22%
system.cpu0.IQ:residence:MemWrite.overflows       174866                      
system.cpu0.IQ:residence:MemWrite.max_value        19711                      
system.cpu0.IQ:residence:MemWrite.end_dist

system.cpu0.IQ:residence:IprAccess.start_dist
system.cpu0.IQ:residence:IprAccess.samples      1415798                      
system.cpu0.IQ:residence:IprAccess.min_value            1                      
                               0       296979   2097.61%   2097.61%
                               2       249818   1764.50%   3862.11%
                               4        79282    559.98%   4422.09%
                               6       269855   1906.03%   6328.12%
                               8       225922   1595.72%   7923.84%
                              10        62712    442.94%   8366.79%
                              12        43960    310.50%   8677.28%
                              14        37115    262.15%   8939.43%
                              16        34274    242.08%   9181.51%
                              18        18276    129.09%   9310.60%
                              20        17840    126.01%   9436.61%
                              22        17998    127.12%   9563.73%
                              24        11710     82.71%   9646.44%
                              26         4043     28.56%   9675.00%
                              28         5477     38.68%   9713.68%
                              30         2953     20.86%   9734.54%
                              32         1962     13.86%   9748.40%
                              34         2339     16.52%   9764.92%
                              36         4219     29.80%   9794.72%
                              38         4346     30.70%   9825.41%
                              40          924      6.53%   9831.94%
                              42          423      2.99%   9834.93%
                              44         1086      7.67%   9842.60%
                              46          803      5.67%   9848.27%
                              48         1815     12.82%   9861.09%
                              50          876      6.19%   9867.28%
                              52          863      6.10%   9873.37%
                              54          645      4.56%   9877.93%
                              56          611      4.32%   9882.24%
                              58         2716     19.18%   9901.43%
                              60          915      6.46%   9907.89%
                              62          589      4.16%   9912.05%
                              64         2592     18.31%   9930.36%
                              66          337      2.38%   9932.74%
                              68          305      2.15%   9934.89%
                              70          307      2.17%   9937.06%
                              72          426      3.01%   9940.07%
                              74          307      2.17%   9942.24%
                              76          527      3.72%   9945.96%
                              78          747      5.28%   9951.24%
                              80          443      3.13%   9954.36%
                              82          255      1.80%   9956.17%
                              84          700      4.94%   9961.11%
                              86          796      5.62%   9966.73%
                              88          308      2.18%   9968.91%
                              90          842      5.95%   9974.86%
                              92          341      2.41%   9977.26%
                              94          419      2.96%   9980.22%
                              96          344      2.43%   9982.65%
                              98          163      1.15%   9983.80%
system.cpu0.IQ:residence:IprAccess.overflows         2293                      
system.cpu0.IQ:residence:IprAccess.max_value          261                      
system.cpu0.IQ:residence:IprAccess.end_dist

system.cpu0.IQ:residence:InstPrefetch.start_dist
system.cpu0.IQ:residence:InstPrefetch.samples            0                      
system.cpu0.IQ:residence:InstPrefetch.min_value            0                      
                               0            0                      
                               2            0                      
                               4            0                      
                               6            0                      
                               8            0                      
                              10            0                      
                              12            0                      
                              14            0                      
                              16            0                      
                              18            0                      
                              20            0                      
                              22            0                      
                              24            0                      
                              26            0                      
                              28            0                      
                              30            0                      
                              32            0                      
                              34            0                      
                              36            0                      
                              38            0                      
                              40            0                      
                              42            0                      
                              44            0                      
                              46            0                      
                              48            0                      
                              50            0                      
                              52            0                      
                              54            0                      
                              56            0                      
                              58            0                      
                              60            0                      
                              62            0                      
                              64            0                      
                              66            0                      
                              68            0                      
                              70            0                      
                              72            0                      
                              74            0                      
                              76            0                      
                              78            0                      
                              80            0                      
                              82            0                      
                              84            0                      
                              86            0                      
                              88            0                      
                              90            0                      
                              92            0                      
                              94            0                      
                              96            0                      
                              98            0                      
system.cpu0.IQ:residence:InstPrefetch.max_value            0                      
system.cpu0.IQ:residence:InstPrefetch.end_dist

system.cpu0.ISSUE:(null)_delay.start_dist 
system.cpu0.ISSUE:(null)_delay.samples           9545                      
system.cpu0.ISSUE:(null)_delay.min_value            1                      
                               0         8599   9008.91%   9008.91%
                               2          626    655.84%   9664.75%
                               4          143    149.82%   9814.56%
                               6           31     32.48%   9847.04%
                               8          127    133.05%   9980.09%
                              10            5      5.24%   9985.33%
                              12            3      3.14%   9988.48%
                              14            1      1.05%   9989.52%
                              16            4      4.19%   9993.71%
                              18            1      1.05%   9994.76%
                              20            4      4.19%   9998.95%
                              22            1      1.05%  10000.00%
                              24            0      0.00%  10000.00%
                              26            0      0.00%  10000.00%
                              28            0      0.00%  10000.00%
                              30            0      0.00%  10000.00%
                              32            0      0.00%  10000.00%
                              34            0      0.00%  10000.00%
                              36            0      0.00%  10000.00%
                              38            0      0.00%  10000.00%
                              40            0      0.00%  10000.00%
                              42            0      0.00%  10000.00%
                              44            0      0.00%  10000.00%
                              46            0      0.00%  10000.00%
                              48            0      0.00%  10000.00%
                              50            0      0.00%  10000.00%
                              52            0      0.00%  10000.00%
                              54            0      0.00%  10000.00%
                              56            0      0.00%  10000.00%
                              58            0      0.00%  10000.00%
                              60            0      0.00%  10000.00%
                              62            0      0.00%  10000.00%
                              64            0      0.00%  10000.00%
                              66            0      0.00%  10000.00%
                              68            0      0.00%  10000.00%
                              70            0      0.00%  10000.00%
                              72            0      0.00%  10000.00%
                              74            0      0.00%  10000.00%
                              76            0      0.00%  10000.00%
                              78            0      0.00%  10000.00%
                              80            0      0.00%  10000.00%
                              82            0      0.00%  10000.00%
                              84            0      0.00%  10000.00%
                              86            0      0.00%  10000.00%
                              88            0      0.00%  10000.00%
                              90            0      0.00%  10000.00%
                              92            0      0.00%  10000.00%
                              94            0      0.00%  10000.00%
                              96            0      0.00%  10000.00%
                              98            0      0.00%  10000.00%
system.cpu0.ISSUE:(null)_delay.max_value           23                      
system.cpu0.ISSUE:(null)_delay.end_dist

system.cpu0.ISSUE:IntAlu_delay.start_dist 
system.cpu0.ISSUE:IntAlu_delay.samples      106795385                      
system.cpu0.ISSUE:IntAlu_delay.min_value            0                      
                               0     95965121   8985.89%   8985.89%
                               2      5370487    502.88%   9488.76%
                               4      1821665    170.58%   9659.34%
                               6       791295     74.09%   9733.43%
                               8       467555     43.78%   9777.21%
                              10       335284     31.39%   9808.61%
                              12       299422     28.04%   9836.65%
                              14       537780     50.36%   9887.00%
                              16       443852     41.56%   9928.56%
                              18       276322     25.87%   9954.44%
                              20       211864     19.84%   9974.27%
                              22       262090     24.54%   9998.82%
                              24        12648      1.18%  10000.00%
                              26            0      0.00%  10000.00%
                              28            0      0.00%  10000.00%
                              30            0      0.00%  10000.00%
                              32            0      0.00%  10000.00%
                              34            0      0.00%  10000.00%
                              36            0      0.00%  10000.00%
                              38            0      0.00%  10000.00%
                              40            0      0.00%  10000.00%
                              42            0      0.00%  10000.00%
                              44            0      0.00%  10000.00%
                              46            0      0.00%  10000.00%
                              48            0      0.00%  10000.00%
                              50            0      0.00%  10000.00%
                              52            0      0.00%  10000.00%
                              54            0      0.00%  10000.00%
                              56            0      0.00%  10000.00%
                              58            0      0.00%  10000.00%
                              60            0      0.00%  10000.00%
                              62            0      0.00%  10000.00%
                              64            0      0.00%  10000.00%
                              66            0      0.00%  10000.00%
                              68            0      0.00%  10000.00%
                              70            0      0.00%  10000.00%
                              72            0      0.00%  10000.00%
                              74            0      0.00%  10000.00%
                              76            0      0.00%  10000.00%
                              78            0      0.00%  10000.00%
                              80            0      0.00%  10000.00%
                              82            0      0.00%  10000.00%
                              84            0      0.00%  10000.00%
                              86            0      0.00%  10000.00%
                              88            0      0.00%  10000.00%
                              90            0      0.00%  10000.00%
                              92            0      0.00%  10000.00%
                              94            0      0.00%  10000.00%
                              96            0      0.00%  10000.00%
                              98            0      0.00%  10000.00%
system.cpu0.ISSUE:IntAlu_delay.max_value           24                      
system.cpu0.ISSUE:IntAlu_delay.end_dist

system.cpu0.ISSUE:IntMult_delay.start_dist
system.cpu0.ISSUE:IntMult_delay.samples        386007                      
system.cpu0.ISSUE:IntMult_delay.min_value            0                      
                               0       289862   7509.24%   7509.24%
                               2        48614   1259.41%   8768.65%
                               4        23225    601.67%   9370.32%
                               6         6806    176.32%   9546.64%
                               8         1535     39.77%   9586.41%
                              10         2290     59.33%   9645.73%
                              12         1417     36.71%   9682.44%
                              14         1563     40.49%   9722.93%
                              16          437     11.32%   9734.25%
                              18         3604     93.37%   9827.62%
                              20         3875    100.39%   9928.01%
                              22         2363     61.22%   9989.22%
                              24          416     10.78%  10000.00%
                              26            0      0.00%  10000.00%
                              28            0      0.00%  10000.00%
                              30            0      0.00%  10000.00%
                              32            0      0.00%  10000.00%
                              34            0      0.00%  10000.00%
                              36            0      0.00%  10000.00%
                              38            0      0.00%  10000.00%
                              40            0      0.00%  10000.00%
                              42            0      0.00%  10000.00%
                              44            0      0.00%  10000.00%
                              46            0      0.00%  10000.00%
                              48            0      0.00%  10000.00%
                              50            0      0.00%  10000.00%
                              52            0      0.00%  10000.00%
                              54            0      0.00%  10000.00%
                              56            0      0.00%  10000.00%
                              58            0      0.00%  10000.00%
                              60            0      0.00%  10000.00%
                              62            0      0.00%  10000.00%
                              64            0      0.00%  10000.00%
                              66            0      0.00%  10000.00%
                              68            0      0.00%  10000.00%
                              70            0      0.00%  10000.00%
                              72            0      0.00%  10000.00%
                              74            0      0.00%  10000.00%
                              76            0      0.00%  10000.00%
                              78            0      0.00%  10000.00%
                              80            0      0.00%  10000.00%
                              82            0      0.00%  10000.00%
                              84            0      0.00%  10000.00%
                              86            0      0.00%  10000.00%
                              88            0      0.00%  10000.00%
                              90            0      0.00%  10000.00%
                              92            0      0.00%  10000.00%
                              94            0      0.00%  10000.00%
                              96            0      0.00%  10000.00%
                              98            0      0.00%  10000.00%
system.cpu0.ISSUE:IntMult_delay.max_value           24                      
system.cpu0.ISSUE:IntMult_delay.end_dist

system.cpu0.ISSUE:IntDiv_delay.start_dist 
system.cpu0.ISSUE:IntDiv_delay.samples              0                      
system.cpu0.ISSUE:IntDiv_delay.min_value            0                      
                               0            0                      
                               2            0                      
                               4            0                      
                               6            0                      
                               8            0                      
                              10            0                      
                              12            0                      
                              14            0                      
                              16            0                      
                              18            0                      
                              20            0                      
                              22            0                      
                              24            0                      
                              26            0                      
                              28            0                      
                              30            0                      
                              32            0                      
                              34            0                      
                              36            0                      
                              38            0                      
                              40            0                      
                              42            0                      
                              44            0                      
                              46            0                      
                              48            0                      
                              50            0                      
                              52            0                      
                              54            0                      
                              56            0                      
                              58            0                      
                              60            0                      
                              62            0                      
                              64            0                      
                              66            0                      
                              68            0                      
                              70            0                      
                              72            0                      
                              74            0                      
                              76            0                      
                              78            0                      
                              80            0                      
                              82            0                      
                              84            0                      
                              86            0                      
                              88            0                      
                              90            0                      
                              92            0                      
                              94            0                      
                              96            0                      
                              98            0                      
system.cpu0.ISSUE:IntDiv_delay.max_value            0                      
system.cpu0.ISSUE:IntDiv_delay.end_dist

system.cpu0.ISSUE:FloatAdd_delay.start_dist
system.cpu0.ISSUE:FloatAdd_delay.samples         9858                      
system.cpu0.ISSUE:FloatAdd_delay.min_value            0                      
                               0         5057   5129.84%   5129.84%
                               2          214    217.08%   5346.93%
                               4            4      4.06%   5350.98%
                               6          438    444.31%   5795.29%
                               8           28     28.40%   5823.70%
[...]
system.cpu0.kern.ipl_used_31                 0.779334                      
system.cpu0.kern.mode_good_kernel                3830                      
system.cpu0.kern.mode_good_user                  3510                      
system.cpu0.kern.mode_good_idle                   128                      
system.cpu0.kern.mode_good_interrupt              192                      
system.cpu0.kern.mode_switch_kernel             15537                      
system.cpu0.kern.mode_switch_user                3510                      
system.cpu0.kern.mode_switch_idle                6009                      
system.cpu0.kern.mode_switch_interrupt            192                      
system.cpu0.kern.mode_switch_good            0.303390                      
system.cpu0.kern.mode_switch_good_kernel     0.246508                      
system.cpu0.kern.mode_switch_good_user              1                      
system.cpu0.kern.mode_switch_good_idle       0.021301                      
system.cpu0.kern.mode_switch_good_interrupt            1                      
system.cpu0.kern.mode_ticks_kernel           70587401     10.03%     10.03%
system.cpu0.kern.mode_ticks_user             17060564      2.42%     12.46%
system.cpu0.kern.mode_ticks_idle            613993766     87.27%     99.73%
system.cpu0.kern.mode_ticks_interrupt         1890267      0.27%    100.00%
system.cpu0.kern.swap_context                    5641                      
system.cpu0.kern.syscall                         1141                      
system.cpu0.kern.syscall_exit                      23      2.02%      2.02%
system.cpu0.kern.syscall_fork                      12      1.05%      3.07%
system.cpu0.kern.syscall_read                      91      7.98%     11.04%
system.cpu0.kern.syscall_write                     93      8.15%     19.19%
system.cpu0.kern.syscall_close                     74      6.49%     25.68%
system.cpu0.kern.syscall_chdir                      2      0.18%     25.85%
system.cpu0.kern.syscall_chmod                      1      0.09%     25.94%
system.cpu0.kern.syscall_obreak                    62      5.43%     31.38%
system.cpu0.kern.syscall_lseek                     12      1.05%     32.43%
system.cpu0.kern.syscall_getpid                    75      6.57%     39.00%
system.cpu0.kern.syscall_setuid                     4      0.35%     39.35%
system.cpu0.kern.syscall_getuid                    12      1.05%     40.40%
system.cpu0.kern.syscall_access                     4      0.35%     40.75%
system.cpu0.kern.syscall_kill                      31      2.72%     43.47%
system.cpu0.kern.syscall_dup                        4      0.35%     43.82%
system.cpu0.kern.syscall_pipe                       1      0.09%     43.91%
system.cpu0.kern.syscall_open                      99      8.68%     52.59%
system.cpu0.kern.syscall_getgid                    12      1.05%     53.64%
system.cpu0.kern.syscall_sigprocmask               91      7.98%     61.61%
system.cpu0.kern.syscall_ioctl                     23      2.02%     63.63%
system.cpu0.kern.syscall_readlink                   3      0.26%     63.89%
system.cpu0.kern.syscall_execve                     9      0.79%     64.68%
system.cpu0.kern.syscall_pre_F64_stat              36      3.16%     67.84%
system.cpu0.kern.syscall_pre_F64_lstat              1      0.09%     67.92%
system.cpu0.kern.syscall_mmap                      90      7.89%     75.81%
system.cpu0.kern.syscall_munmap                    32      2.80%     78.62%
system.cpu0.kern.syscall_mprotect                  38      3.33%     81.95%
system.cpu0.kern.syscall_gethostname                3      0.26%     82.21%
system.cpu0.kern.syscall_dup2                       3      0.26%     82.47%
system.cpu0.kern.syscall_pre_F64_fstat             36      3.16%     85.63%
system.cpu0.kern.syscall_fcntl                     18      1.58%     87.20%
system.cpu0.kern.syscall_poll                      43      3.77%     90.97%
system.cpu0.kern.syscall_socket                     4      0.35%     91.32%
system.cpu0.kern.syscall_connect                    4      0.35%     91.67%
system.cpu0.kern.syscall_sigreturn                 52      4.56%     96.23%
system.cpu0.kern.syscall_sigsuspend                31      2.72%     98.95%
system.cpu0.kern.syscall_setgid                     4      0.35%     99.30%
system.cpu0.kern.syscall_getrlimit                  3      0.26%     99.56%
system.cpu0.kern.syscall_setsid                     3      0.26%     99.82%
system.cpu0.kern.syscall_getsysinfo                 1      0.09%     99.91%
system.cpu0.kern.syscall_setsysinfo                 1      0.09%    100.00%
system.cpu0.numCycles                       703533688                      
system.cpu0inst_class_dist.start_dist
                   All ops ready            0      0.00%           
                One op not ready            0      0.00%           
           None rdy, mult chains            0      0.00%           
           None rdy, one chained            0      0.00%           
        None rdy, all self-timed            0      0.00%           
system.cpu0inst_class_dist.end_dist
system.htbus.addr_idle_cycles               702554613                      
system.htbus.addr_idle_fraction              0.998608                      
system.htbus.addr_queued                    31.783128                      
system.htbus.addr_queued_cycles               4290468                      
system.htbus.addr_requests                     134992                      
system.htbus.bus_blocked                            0                      
system.htbus.bus_blocked_cycles                     0                      
system.htbus.bus_blocked_fraction                   0                      
system.htbus.data_idle_cycles               702452710                      
system.htbus.data_idle_fraction              0.998464                      
system.htbus.data_queued                            1                      
system.htbus.data_queued_cycles                  8812                      
system.htbus.data_requests                       8812                      
system.htbus.null_grants                            0                      
system.kern.fnCalls                                 0                      
system.l2.avg_blocked_cycles_no_mshrs    <err: div-0>                      
system.l2.avg_blocked_cycles_no_targets  <err: div-0>                      
system.l2.avg_refs                           2.386023                      
system.l2.blocked_no_mshrs                          0                      
system.l2.blocked_no_targets                        0                      
system.l2.blocked_cycles_no_mshrs                   0                      
system.l2.blocked_cycles_no_targets                 0                      
system.l2.cache_copies                              0                      
system.l2.demand_accesses                     3357691                      
system.l2.demand_avg_miss_latency           67.011134                      
system.l2.demand_avg_mshr_miss_latency      37.094964                      
system.l2.demand_hits                         2172411                      
system.l2.demand_miss_latency                79426957                      
system.l2.demand_miss_rate                   0.353004                      
system.l2.demand_misses                       1185280                      
system.l2.demand_mshr_hits                          0                      
system.l2.demand_mshr_miss_latency           43967919                      
system.l2.demand_mshr_miss_rate              0.353004                      
system.l2.demand_mshr_misses                  1185280                      
system.l2.fast_writes                               0                      
system.l2.mshr_cap_events                           0                      
system.l2.no_allocate_misses                        0                      
system.l2.overall_accesses                    4009866                      
system.l2.overall_avg_miss_latency          67.011134                      
system.l2.overall_avg_mshr_miss_latency     37.094964                      
system.l2.overall_avg_mshr_uncacheable_latency   208.468093                      
system.l2.overall_hits                        2824586                      
system.l2.overall_miss_latency               79426957                      
system.l2.overall_miss_rate                  0.295591                      
system.l2.overall_misses                      1185280                      
system.l2.overall_mshr_hits                         0                      
system.l2.overall_mshr_miss_latency          43967919                      
system.l2.overall_mshr_miss_rate             0.295591                      
system.l2.overall_mshr_misses                 1185280                      
system.l2.overall_mshr_uncacheable_latency      4384084                      
system.l2.overall_mshr_uncacheable_misses        21030                      
system.l2.prefetcher.num_hwpf_already_in_cache            0                      
system.l2.prefetcher.num_hwpf_already_in_mshr            0                      
system.l2.prefetcher.num_hwpf_already_in_prefetcher            0                      
system.l2.prefetcher.num_hwpf_evicted               0                      
system.l2.prefetcher.num_hwpf_identified            0                      
system.l2.prefetcher.num_hwpf_issued                0                      
system.l2.prefetcher.num_hwpf_removed_MSHR_hit            0                      
system.l2.prefetcher.num_hwpf_span_page             0                      
system.l2.prefetcher.num_hwpf_squashed_from_miss            0                      
system.l2.read_accesses                       3357691                      
system.l2.read_avg_miss_latency             67.011134                      
system.l2.read_avg_mshr_miss_latency        37.094964                      
system.l2.read_avg_mshr_uncacheable_latency   181.060650                      
system.l2.read_hits                           2172411                      
system.l2.read_miss_latency                  79426957                      
system.l2.read_miss_rate                     0.353004                      
system.l2.read_misses                         1185280                      
system.l2.read_mshr_miss_latency             43967919                      
system.l2.read_mshr_miss_rate                0.353004                      
system.l2.read_mshr_misses                    1185280                      
system.l2.read_mshr_uncacheable                  9596                      
system.l2.read_mshr_uncacheable_latency       1737458                      
system.l2.replacements                        1151056                      
system.l2.sampled_refs                        1183307                      
system.l2.soft_prefetch_mshr_full                   0                      
system.l2.tagsinuse                      32637.335981                      
system.l2.total_refs                          2823398                      
system.l2.warmup_cycle                        3560118                      
system.l2.write_avg_mshr_uncacheable_latency   231.469827                      
system.l2.write_mshr_uncacheable                11434                      
system.l2.write_mshr_uncacheable_latency      2646626                      
system.l2.writeback_accesses                   652175                      
system.l2.writeback_hits                       652175                      
system.l2.writebacks                           147279                      
system.l2bus.addr_idle_cycles               699435607                      
system.l2bus.addr_idle_fraction              0.994175                      
system.l2bus.addr_queued                     4.042121                      
system.l2bus.addr_queued_cycles              16561470                      
system.l2bus.addr_requests                    4097223                      
system.l2bus.bus_blocked                          222                      
system.l2bus.bus_blocked_cycles                 99222                      
system.l2bus.bus_blocked_fraction            0.000141                      
system.l2bus.data_idle_cycles               699502740                      
system.l2bus.data_idle_fraction              0.994270                      
system.l2bus.data_queued                     1.018191                      
system.l2bus.data_queued_cycles               3428569                      
system.l2bus.data_requests                    3367314                      
system.l2bus.null_grants                        37151                      
system.membus.addr_idle_cycles              702058001                      
system.membus.addr_idle_fraction             0.997902                      
system.membus.addr_queued                   28.168172                      
system.membus.addr_queued_cycles             41544758                      
system.membus.addr_requests                   1474883                      
system.membus.bus_blocked                           0                      
system.membus.bus_blocked_cycles                    0                      
system.membus.bus_blocked_fraction                  0                      
system.membus.data_idle_cycles              697961474                      
system.membus.data_idle_fraction             0.992080                      
system.membus.data_queued                    2.205962                      
system.membus.data_queued_cycles              2636354                      
system.membus.data_requests                   1195104                      
system.membus.null_grants                           0                      
system.pcibus.addr_idle_cycles              702367036                      
system.pcibus.addr_idle_fraction             0.998342                      
system.pcibus.addr_queued                  339.143668                      
system.pcibus.addr_queued_cycles             45781682                      
system.pcibus.addr_requests                    134992                      
system.pcibus.bus_blocked                        3427                      
system.pcibus.bus_blocked_cycles                99380                      
system.pcibus.bus_blocked_fraction           0.000141                      
system.pcibus.data_idle_cycles              701775412                      
system.pcibus.data_idle_fraction             0.997501                      
system.pcibus.data_queued                    2.142987                      
system.pcibus.data_queued_cycles                18884                      
system.pcibus.data_requests                      8812                      
system.pcibus.null_grants                           0                      
system.ram.accesses                           1387603                      
system.ram.bytes_requested                          0                      
system.ram.bytes_sent                               0                      
system.ram.compressed_responses                     0                      
system.tsunami.etherdev0.coalescedRxDesc <err: div-0>                      
system.tsunami.etherdev0.coalescedRxIdle <err: div-0>                      
system.tsunami.etherdev0.coalescedRxOk   <err: div-0>                      
system.tsunami.etherdev0.coalescedRxOrn  <err: div-0>                      
system.tsunami.etherdev0.coalescedSwi    <err: div-0>                      
system.tsunami.etherdev0.coalescedTotal  <err: div-0>                      
system.tsunami.etherdev0.coalescedTxDesc <err: div-0>                      
system.tsunami.etherdev0.coalescedTxIdle <err: div-0>                      
system.tsunami.etherdev0.coalescedTxOk   <err: div-0>                      
system.tsunami.etherdev0.descDMAReads               0                      
system.tsunami.etherdev0.descDMAWrites              0                      
system.tsunami.etherdev0.descDmaReadBytes            0                      
system.tsunami.etherdev0.descDmaWriteBytes            0                      
system.tsunami.etherdev0.dma.avg_large_transaction_latency <err: div-0>                      
system.tsunami.etherdev0.dma.avg_small_transaction_latency <err: div-0>                      
system.tsunami.etherdev0.dma.avg_transaction_latency <err: div-0>                      
system.tsunami.etherdev0.dma.bytes_transfered            0                      
system.tsunami.etherdev0.dma.large_transaction_latency            0                      
system.tsunami.etherdev0.dma.large_transactions            0                      
system.tsunami.etherdev0.dma.packets_sent            0                      
system.tsunami.etherdev0.dma.requests               0                      
system.tsunami.etherdev0.dma.round_trip_latency <err: div-0>                      
system.tsunami.etherdev0.dma.small_transaction_latency            0                      
system.tsunami.etherdev0.dma.small_transactions            0                      
system.tsunami.etherdev0.dma.total_cycle_latency            0                      
system.tsunami.etherdev0.dma.transaction_latency            0                      
system.tsunami.etherdev0.droppedPackets             0                      
system.tsunami.etherdev0.postedInterrupts            0                      
system.tsunami.etherdev0.postedRxDesc               0                      
system.tsunami.etherdev0.postedRxIdle               0                      
system.tsunami.etherdev0.postedRxOk                 0                      
system.tsunami.etherdev0.postedRxOrn                0                      
system.tsunami.etherdev0.postedSwi                  0                      
system.tsunami.etherdev0.postedTxDesc               0                      
system.tsunami.etherdev0.postedTxIdle               0                      
system.tsunami.etherdev0.postedTxOk                 0                      
system.tsunami.etherdev0.totalRxDesc                0                      
system.tsunami.etherdev0.totalRxIdle                0                      
system.tsunami.etherdev0.totalRxOk                  0                      
system.tsunami.etherdev0.totalRxOrn                 0                      
system.tsunami.etherdev0.totalSwi                   0                      
system.tsunami.etherdev0.totalTxDesc                0                      
system.tsunami.etherdev0.totalTxIdle                0                      
system.tsunami.etherdev0.totalTxOk                  0                      
system.tsunami.ide.dma.avg_large_transaction_latency  1881.646388                      
system.tsunami.ide.dma.avg_small_transaction_latency   192.698113                      
system.tsunami.ide.dma.avg_transaction_latency  1396.474255                      
system.tsunami.ide.dma.bytes_transfered       3522160                      
system.tsunami.ide.dma.large_transaction_latency       989746                      
system.tsunami.ide.dma.large_transactions          526                      
system.tsunami.ide.dma.packets_sent             55044                      
system.tsunami.ide.dma.requests                   738                      
system.tsunami.ide.dma.round_trip_latency  1064.888671                      
system.tsunami.ide.dma.small_transaction_latency        40852                      
system.tsunami.ide.dma.small_transactions          212                      
system.tsunami.ide.dma.total_cycle_latency     58615732                      
system.tsunami.ide.dma.transaction_latency      1030598                      

---------- End Simulation Statistics   ----------
