
---------- Begin Simulation Statistics ----------
host_inst_rate                                  23640                      
host_mem_usage                                 195340                      
host_seconds                                  5512.65                      
host_tick_rate                                 192193                      
sim_freq                                    300000000                      
sim_insts                                   130320817                      
sim_seconds                                  3.531633                      
sim_ticks                                  1059489798                      
system.cpu0.COM:IPB                          5.247718                      
system.cpu0.COM:IPC                          0.123003                      
system.cpu0.COM:branches                     24833808                      
system.cpu0.COM:bw_lim_avg               <err: div-0>                      
system.cpu0.COM:bw_lim_events                       0                      
system.cpu0.COM:bw_lim_rate                    0.0000                      
system.cpu0.COM:bw_lim_stdev_0_mean      <err: div-0>                      
system.cpu0.COM:bw_lim_stdev_0_stdev     <err: div-0>                      
**Ignore: system.cpu0.COM:bw_lim_stdev_0_TOT       0.0000                      
system.cpu0.COM:bw_limited                          0                      
system.cpu0.COM:committed_per_cycle.start_dist
system.cpu0.COM:committed_per_cycle.samples     44293553                      
system.cpu0.COM:committed_per_cycle.min_value            0                      
                               0       406271     91.72%           
                               1     10050551   2269.08%           
                               2      5798912   1309.20%           
                               3      3266246    737.41%           
                               4     24771573   5592.59%           
system.cpu0.COM:committed_per_cycle.max_value            4                      
system.cpu0.COM:committed_per_cycle.end_dist

system.cpu0.COM:count                       130320817                      
system.cpu0.COM:loads                        17469331                      
system.cpu0.COM:membars                        312219                      
system.cpu0.COM:refs                         28434780                      
system.cpu0.COM:stores                       10965449                      
system.cpu0.COM:swp_count                      212588                      
system.cpu0.DDQ:count                      9030872981                      
system.cpu0.DDQ:rate                                9                      
system.cpu0.DIS:chain_creation.start_dist
     Inst has no outstanding IDEPS            0      0.00%           
      IDEP chain reached max depth            0      0.00%           
                    Inst is a load            0      0.00%           
  Chain has multiple chained IDEPS            0      0.00%           
system.cpu0.DIS:chain_creation.end_dist
system.cpu0.DIS:chain_head_frac                     0                      
system.cpu0.DIS:chain_heads                         0                      
system.cpu0.DIS:chains_insuf                        0                      
system.cpu0.DIS:chains_insuf_rate                   0                      
system.cpu0.DIS:count                       152220218                      
system.cpu0.DIS:insufficient_chains                 0                      
system.cpu0.DIS:mod_n_stall_avg_free     <err: div-0>                      
system.cpu0.DIS:mod_n_stall_frac                    0                      
system.cpu0.DIS:mod_n_stall_free                    0                      
system.cpu0.DIS:mod_n_stalls                        0                      
system.cpu0.DIS:one_rdy_insts                       0                      
system.cpu0.DIS:one_rdy_ratio            <err: div-0>                      
system.cpu0.DIS:op_count                    186582975                      
system.cpu0.DIS:op_rate                      0.176106                      
system.cpu0.DIS:rate                         0.143673                      
system.cpu0.DIS:second_choice_clust                 0                      
system.cpu0.DIS:second_choice_stall                 0                      
system.cpu0.DIS:serialize_stall_cycles        9549618                      
system.cpu0.DIS:serializing_insts              303572                      
system.cpu0.DIS:two_input_insts                     0                      
system.cpu0.DIS:two_input_ratio                     0                      
system.cpu0.FETCH:branch_count               42374331                      
system.cpu0.FETCH:branch_rate                0.039995                      
system.cpu0.FETCH:chance_pct                        1                      
system.cpu0.FETCH:chances                    61660437                      
system.cpu0.FETCH:choice                     61660437                      
system.cpu0.FETCH:count                     216290949                      
system.cpu0.FETCH:decisions                  61660437                      
system.cpu0.FETCH:idle_cycles               997829362                      
system.cpu0.FETCH:idle_icache_blocked_cycles            0                      
system.cpu0.FETCH:idle_rate                     94.18                      
system.cpu0.FETCH:prio_changes                      0                      
system.cpu0.FETCH:rate                       0.204146                      
system.cpu0.FETCH:rate_dist.start_dist    
system.cpu0.FETCH:rate_dist.samples          61660437                      
system.cpu0.FETCH:rate_dist.min_value               0                      
                               0       182818     29.65%           
                               1      5523786    895.84%           
                               2      2864157    464.50%           
                               3      7319855   1187.12%           
                               4     45769821   7422.88%           
system.cpu0.FETCH:rate_dist.max_value               4                      
system.cpu0.FETCH:rate_dist.end_dist

system.cpu0.FETCH:rate_dist_0.start_dist  
system.cpu0.FETCH:rate_dist_0.samples        61660437                      
system.cpu0.FETCH:rate_dist_0.min_value             0                      
                               0       182818     29.65%           
                               1      5523786    895.84%           
                               2      2864157    464.50%           
                               3      7319855   1187.12%           
                               4     45769821   7422.88%           
system.cpu0.FETCH:rate_dist_0.max_value             4                      
system.cpu0.FETCH:rate_dist_0.end_dist

system.cpu0.IFQ:count                      3791766322                      
system.cpu0.IFQ:full_count                  108935070                      
system.cpu0.IFQ:full_rate                   10.281842                      
system.cpu0.IFQ:latency                     24.909742                      
system.cpu0.IFQ:occupancy                    3.578861                      
system.cpu0.IFQ:qfull_iq_occ               5326087597                      
system.cpu0.IFQ:qfull_iq_occ_dist_0.start_dist
system.cpu0.IFQ:qfull_iq_occ_dist_0.samples     90496776                      
system.cpu0.IFQ:qfull_iq_occ_dist_0.min_value            0                      
                               0      5699347    629.78%           
                              10       773983     85.53%           
                              20       661768     73.13%           
                              30       740139     81.79%           
                              40       938240    103.68%           
                              50       846564     93.55%           
                              60     80836735   8932.55%           
system.cpu0.IFQ:qfull_iq_occ_dist_0.max_value           64                      
system.cpu0.IFQ:qfull_iq_occ_dist_0.end_dist

system.cpu0.IFQ:qfull_rob_occ              8262733491                      
system.cpu0.IFQ:qfull_rob_occ_dist_0.start_dist
system.cpu0.IFQ:qfull_rob_occ_dist_0.samples     90496776                      
system.cpu0.IFQ:qfull_rob_occ_dist_0.min_value            1                      
                               0      1296631    143.28%           
                              10      1749033    193.27%           
                              20      1161578    128.36%           
                              30       465621     51.45%           
                              40       283745     31.35%           
                              50       187132     20.68%           
                              60      5662807    625.75%           
                              70      1442754    159.43%           
                              80       629741     69.59%           
                              90     73270126   8096.43%           
                             100       902314     99.71%           
                             110      1212453    133.98%           
                             120      2232841    246.73%           
                             130            0      0.00%           
system.cpu0.IFQ:qfull_rob_occ_dist_0.max_value          128                      
system.cpu0.IFQ:qfull_rob_occ_dist_0.end_dist

system.cpu0.IQ:cap_events                           0                      
system.cpu0.IQ:cap_inst                             0                      
system.cpu0.IQ:residence:(null).start_dist
system.cpu0.IQ:residence:(null).samples          9041                      
system.cpu0.IQ:residence:(null).min_value            1                      
                               0         8093   8951.44%   8951.44%
                               2          621    686.87%   9638.31%
                               4          142    157.06%   9795.38%
                               6           30     33.18%   9828.56%
                               8          126    139.37%   9967.92%
                              10            4      4.42%   9972.35%
                              12            5      5.53%   9977.88%
                              14            2      2.21%   9980.09%
                              16           12     13.27%   9993.36%
                              18            2      2.21%   9995.58%
                              20            2      2.21%   9997.79%
                              22            2      2.21%  10000.00%
                              24            0      0.00%  10000.00%
                              26            0      0.00%  10000.00%
                              28            0      0.00%  10000.00%
                              30            0      0.00%  10000.00%
                              32            0      0.00%  10000.00%
                              34            0      0.00%  10000.00%
                              36            0      0.00%  10000.00%
                              38            0      0.00%  10000.00%
                              40            0      0.00%  10000.00%
                              42            0      0.00%  10000.00%
                              44            0      0.00%  10000.00%
                              46            0      0.00%  10000.00%
                              48            0      0.00%  10000.00%
                              50            0      0.00%  10000.00%
                              52            0      0.00%  10000.00%
                              54            0      0.00%  10000.00%
                              56            0      0.00%  10000.00%
                              58            0      0.00%  10000.00%
                              60            0      0.00%  10000.00%
                              62            0      0.00%  10000.00%
                              64            0      0.00%  10000.00%
                              66            0      0.00%  10000.00%
                              68            0      0.00%  10000.00%
                              70            0      0.00%  10000.00%
                              72            0      0.00%  10000.00%
                              74            0      0.00%  10000.00%
                              76            0      0.00%  10000.00%
                              78            0      0.00%  10000.00%
                              80            0      0.00%  10000.00%
                              82            0      0.00%  10000.00%
                              84            0      0.00%  10000.00%
                              86            0      0.00%  10000.00%
                              88            0      0.00%  10000.00%
                              90            0      0.00%  10000.00%
                              92            0      0.00%  10000.00%
                              94            0      0.00%  10000.00%
                              96            0      0.00%  10000.00%
                              98            0      0.00%  10000.00%
system.cpu0.IQ:residence:(null).max_value           22                      
system.cpu0.IQ:residence:(null).end_dist

system.cpu0.IQ:residence:IntAlu.start_dist
system.cpu0.IQ:residence:IntAlu.samples     107135954                      
system.cpu0.IQ:residence:IntAlu.min_value            1                      
                               0     28442412   2654.80%   2654.80%
                               2     27603870   2576.53%   5231.32%
                               4      6611466    617.11%   5848.43%
                               6      5272008    492.09%   6340.52%
                               8      4150448    387.40%   6727.92%
                              10      2974748    277.66%   7005.58%
                              12      2509173    234.20%   7239.78%
                              14      2696463    251.69%   7491.47%
                              16      3113957    290.65%   7782.13%
                              18      2479933    231.48%   8013.60%
                              20      2654178    247.74%   8261.34%
                              22      3044716    284.19%   8545.53%
                              24      1761031    164.37%   8709.91%
                              26       985463     91.98%   8801.89%
                              28       616350     57.53%   8859.42%
                              30       604343     56.41%   8915.83%
                              32       541289     50.52%   8966.35%
                              34       469664     43.84%   9010.19%
                              36       565244     52.76%   9062.95%
                              38       515651     48.13%   9111.08%
                              40       449669     41.97%   9153.05%
                              42       342059     31.93%   9184.98%
                              44       359699     33.57%   9218.55%
                              46       312113     29.13%   9247.68%
                              48       257275     24.01%   9271.70%
                              50       252258     23.55%   9295.24%
                              52       249593     23.30%   9318.54%
                              54       256126     23.91%   9342.45%
                              56       110230     10.29%   9352.74%
                              58       131941     12.32%   9365.05%
                              60       119390     11.14%   9376.20%
                              62       210151     19.62%   9395.81%
                              64       117535     10.97%   9406.78%
                              66       101951      9.52%   9416.30%
                              68       108235     10.10%   9426.40%
                              70        70345      6.57%   9432.97%
                              72        76851      7.17%   9440.14%
                              74        60153      5.61%   9445.75%
                              76        84014      7.84%   9453.60%
                              78       101987      9.52%   9463.11%
                              80        47368      4.42%   9467.54%
                              82        49215      4.59%   9472.13%
                              84        50391      4.70%   9476.83%
                              86        55812      5.21%   9482.04%
                              88        70032      6.54%   9488.58%
                              90        74776      6.98%   9495.56%
                              92        53779      5.02%   9500.58%
                              94        35609      3.32%   9503.90%
                              96        36429      3.40%   9507.30%
                              98        64535      6.02%   9513.33%
system.cpu0.IQ:residence:IntAlu.overflows      5214026                      
system.cpu0.IQ:residence:IntAlu.max_value        19711                      
system.cpu0.IQ:residence:IntAlu.end_dist

system.cpu0.IQ:residence:IntMult.start_dist
system.cpu0.IQ:residence:IntMult.samples       386406                      
system.cpu0.IQ:residence:IntMult.min_value            1                      
                               0         4832    125.05%    125.05%
                               2         3412     88.30%    213.35%
                               4         9556    247.30%    460.66%
                               6         6928    179.29%    639.95%
                               8         8020    207.55%    847.50%
                              10         6809    176.21%   1023.72%
                              12         6621    171.35%   1195.06%
                              14        10523    272.33%   1467.39%
                              16         8035    207.94%   1675.34%
                              18        19588    506.93%   2182.26%
                              20        94799   2453.35%   4635.62%
                              22       119811   3100.65%   7736.27%
                              24        47736   1235.38%   8971.65%
                              26         3447     89.21%   9060.86%
                              28          376      9.73%   9070.59%
                              30         3202     82.87%   9153.46%
                              32         2878     74.48%   9227.94%
                              34         2926     75.72%   9303.66%
                              36         3360     86.96%   9390.62%
                              38         2425     62.76%   9453.37%
                              40         9559    247.38%   9700.76%
                              42         1190     30.80%   9731.55%
                              44          501     12.97%   9744.52%
                              46          190      4.92%   9749.43%
                              48          551     14.26%   9763.69%
                              50          257      6.65%   9770.35%
                              52          275      7.12%   9777.46%
                              54          589     15.24%   9792.71%
                              56          404     10.46%   9803.16%
                              58          122      3.16%   9806.32%
                              60           23      0.60%   9806.91%
                              62           54      1.40%   9808.31%
                              64           43      1.11%   9809.42%
                              66           86      2.23%   9811.65%
                              68          102      2.64%   9814.29%
                              70          278      7.19%   9821.48%
                              72          360      9.32%   9830.80%
                              74          229      5.93%   9836.73%
                              76           98      2.54%   9839.26%
                              78          121      3.13%   9842.39%
                              80           96      2.48%   9844.88%
                              82          100      2.59%   9847.47%
                              84           44      1.14%   9848.60%
                              86           11      0.28%   9848.89%
                              88           45      1.16%   9850.05%
                              90           25      0.65%   9850.70%
                              92            6      0.16%   9850.86%
                              94           16      0.41%   9851.27%
                              96            9      0.23%   9851.50%
                              98           12      0.31%   9851.81%
system.cpu0.IQ:residence:IntMult.overflows         5726                      
system.cpu0.IQ:residence:IntMult.max_value          623                      
system.cpu0.IQ:residence:IntMult.end_dist

system.cpu0.IQ:residence:IntDiv.start_dist
system.cpu0.IQ:residence:IntDiv.samples             0                      
system.cpu0.IQ:residence:IntDiv.min_value            0                      
                               0            0                      
                               2            0                      
                               4            0                      
                               6            0                      
                               8            0                      
                              10            0                      
                              12            0                      
                              14            0                      
                              16            0                      
                              18            0                      
                              20            0                      
                              22            0                      
                              24            0                      
                              26            0                      
                              28            0                      
                              30            0                      
                              32            0                      
                              34            0                      
                              36            0                      
                              38            0                      
                              40            0                      
                              42            0                      
                              44            0                      
                              46            0                      
                              48            0                      
                              50            0                      
                              52            0                      
                              54            0                      
                              56            0                      
                              58            0                      
                              60            0                      
                              62            0                      
                              64            0                      
                              66            0                      
                              68            0                      
                              70            0                      
                              72            0                      
                              74            0                      
                              76            0                      
                              78            0                      
                              80            0                      
                              82            0                      
                              84            0                      
                              86            0                      
                              88            0                      
                              90            0                      
                              92            0                      
                              94            0                      
                              96            0                      
                              98            0                      
system.cpu0.IQ:residence:IntDiv.max_value            0                      
system.cpu0.IQ:residence:IntDiv.end_dist

system.cpu0.IQ:residence:FloatAdd.start_dist
system.cpu0.IQ:residence:FloatAdd.samples         9421                      
system.cpu0.IQ:residence:FloatAdd.min_value            1                      
                               0          101    107.21%    107.21%
                               2          159    168.77%    275.98%
                               4          140    148.60%    424.58%
                               6         2250   2388.28%   2812.86%
                               8           14     14.86%   2827.73%
                              10          463    491.46%   3319.18%
                              12          822    872.52%   4191.70%
                              14          326    346.04%   4537.73%
                              16         2428   2577.22%   7114.96%
                              18            2      2.12%   7117.08%
                              20            0      0.00%   7117.08%
                              22            1      1.06%   7118.14%
                              24            2      2.12%   7120.26%
                              26            0      0.00%   7120.26%
                              28            0      0.00%   7120.26%
                              30            0      0.00%   7120.26%
                              32            4      4.25%   7124.51%
                              34           37     39.27%   7163.78%
                              36         1821   1932.92%   9096.70%
                              38          845    896.93%   9993.63%
                              40            0      0.00%   9993.63%
                              42            0      0.00%   9993.63%
                              44            0      0.00%   9993.63%
                              46            0      0.00%   9993.63%
                              48            0      0.00%   9993.63%
                              50            0      0.00%   9993.63%
                              52            0      0.00%   9993.63%
                              54            0      0.00%   9993.63%
                              56            0      0.00%   9993.63%
                              58            0      0.00%   9993.63%
                              60            0      0.00%   9993.63%
                              62            0      0.00%   9993.63%
                              64            0      0.00%   9993.63%
                              66            0      0.00%   9993.63%
                              68            0      0.00%   9993.63%
                              70            1      1.06%   9994.69%
                              72            0      0.00%   9994.69%
                              74            1      1.06%   9995.75%
                              76            0      0.00%   9995.75%
                              78            0      0.00%   9995.75%
                              80            0      0.00%   9995.75%
                              82            4      4.25%  10000.00%
                              84            0      0.00%  10000.00%
                              86            0      0.00%  10000.00%
                              88            0      0.00%  10000.00%
                              90            0      0.00%  10000.00%
                              92            0      0.00%  10000.00%
                              94            0      0.00%  10000.00%
                              96            0      0.00%  10000.00%
                              98            0      0.00%  10000.00%
system.cpu0.IQ:residence:FloatAdd.max_value           83                      
system.cpu0.IQ:residence:FloatAdd.end_dist

system.cpu0.IQ:residence:FloatCmp.start_dist
system.cpu0.IQ:residence:FloatCmp.samples            0                      
system.cpu0.IQ:residence:FloatCmp.min_value            0                      
                               0            0                      
                               2            0                      
                               4            0                      
                               6            0                      
                               8            0                      
                              10            0                      
                              12            0                      
                              14            0                      
                              16            0                      
                              18            0                      
                              20            0                      
                              22            0                      
                              24            0                      
                              26            0                      
                              28            0                      
                              30            0                      
                              32            0                      
                              34            0                      
                              36            0                      
                              38            0                      
                              40            0                      
                              42            0                      
                              44            0                      
                              46            0                      
                              48            0                      
                              50            0                      
                              52            0                      
                              54            0                      
                              56            0                      
                              58            0                      
                              60            0                      
                              62            0                      
                              64            0                      
                              66            0                      
                              68            0                      
                              70            0                      
                              72            0                      
                              74            0                      
                              76            0                      
                              78            0                      
                              80            0                      
                              82            0                      
                              84            0                      
                              86            0                      
                              88            0                      
                              90            0                      
                              92            0                      
                              94            0                      
                              96            0                      
                              98            0                      
system.cpu0.IQ:residence:FloatCmp.max_value            0                      
system.cpu0.IQ:residence:FloatCmp.end_dist

system.cpu0.IQ:residence:FloatCvt.start_dist
system.cpu0.IQ:residence:FloatCvt.samples            0                      
system.cpu0.IQ:residence:FloatCvt.min_value            0                      
                               0            0                      
                               2            0                      
                               4            0                      
                               6            0                      
                               8            0                      
                              10            0                      
                              12            0                      
                              14            0                      
                              16            0                      
                              18            0                      
                              20            0                      
                              22            0                      
                              24            0                      
                              26            0                      
                              28            0                      
                              30            0                      
                              32            0                      
                              34            0                      
                              36            0                      
                              38            0                      
                              40            0                      
                              42            0                      
                              44            0                      
                              46            0                      
                              48            0                      
                              50            0                      
                              52            0                      
                              54            0                      
                              56            0                      
                              58            0                      
                              60            0                      
                              62            0                      
                              64            0                      
                              66            0                      
                              68            0                      
                              70            0                      
                              72            0                      
                              74            0                      
                              76            0                      
                              78            0                      
                              80            0                      
                              82            0                      
                              84            0                      
                              86            0                      
                              88            0                      
                              90            0                      
                              92            0                      
                              94            0                      
                              96            0                      
                              98            0                      
system.cpu0.IQ:residence:FloatCvt.max_value            0                      
system.cpu0.IQ:residence:FloatCvt.end_dist

system.cpu0.IQ:residence:FloatMult.start_dist
system.cpu0.IQ:residence:FloatMult.samples            2                      
system.cpu0.IQ:residence:FloatMult.min_value            8                      
                               0            0      0.00%      0.00%
                               2            0      0.00%      0.00%
                               4            0      0.00%      0.00%
                               6            0      0.00%      0.00%
                               8            1   5000.00%   5000.00%
                              10            0      0.00%   5000.00%
                              12            0      0.00%   5000.00%
                              14            0      0.00%   5000.00%
                              16            0      0.00%   5000.00%
                              18            0      0.00%   5000.00%
                              20            0      0.00%   5000.00%
                              22            0      0.00%   5000.00%
                              24            0      0.00%   5000.00%
                              26            0      0.00%   5000.00%
                              28            0      0.00%   5000.00%
                              30            0      0.00%   5000.00%
                              32            0      0.00%   5000.00%
                              34            0      0.00%   5000.00%
                              36            0      0.00%   5000.00%
                              38            0      0.00%   5000.00%
                              40            0      0.00%   5000.00%
                              42            0      0.00%   5000.00%
                              44            0      0.00%   5000.00%
                              46            0      0.00%   5000.00%
                              48            0      0.00%   5000.00%
                              50            0      0.00%   5000.00%
                              52            0      0.00%   5000.00%
                              54            0      0.00%   5000.00%
                              56            0      0.00%   5000.00%
                              58            0      0.00%   5000.00%
                              60            0      0.00%   5000.00%
                              62            0      0.00%   5000.00%
                              64            0      0.00%   5000.00%
                              66            0      0.00%   5000.00%
                              68            0      0.00%   5000.00%
                              70            1   5000.00%  10000.00%
                              72            0      0.00%  10000.00%
                              74            0      0.00%  10000.00%
                              76            0      0.00%  10000.00%
                              78            0      0.00%  10000.00%
                              80            0      0.00%  10000.00%
                              82            0      0.00%  10000.00%
                              84            0      0.00%  10000.00%
                              86            0      0.00%  10000.00%
                              88            0      0.00%  10000.00%
                              90            0      0.00%  10000.00%
                              92            0      0.00%  10000.00%
                              94            0      0.00%  10000.00%
                              96            0      0.00%  10000.00%
                              98            0      0.00%  10000.00%
system.cpu0.IQ:residence:FloatMult.max_value           70                      
system.cpu0.IQ:residence:FloatMult.end_dist

system.cpu0.IQ:residence:FloatDiv.start_dist
system.cpu0.IQ:residence:FloatDiv.samples           60                      
system.cpu0.IQ:residence:FloatDiv.min_value            6                      
                               0            0      0.00%      0.00%
                               2            0      0.00%      0.00%
                               4            0      0.00%      0.00%
                               6           59   9833.33%   9833.33%
                               8            0      0.00%   9833.33%
                              10            0      0.00%   9833.33%
                              12            0      0.00%   9833.33%
                              14            0      0.00%   9833.33%
                              16            0      0.00%   9833.33%
                              18            0      0.00%   9833.33%
                              20            0      0.00%   9833.33%
                              22            0      0.00%   9833.33%
                              24            0      0.00%   9833.33%
                              26            1    166.67%  10000.00%
                              28            0      0.00%  10000.00%
                              30            0      0.00%  10000.00%
                              32            0      0.00%  10000.00%
                              34            0      0.00%  10000.00%
                              36            0      0.00%  10000.00%
                              38            0      0.00%  10000.00%
                              40            0      0.00%  10000.00%
                              42            0      0.00%  10000.00%
                              44            0      0.00%  10000.00%
                              46            0      0.00%  10000.00%
                              48            0      0.00%  10000.00%
                              50            0      0.00%  10000.00%
                              52            0      0.00%  10000.00%
                              54            0      0.00%  10000.00%
                              56            0      0.00%  10000.00%
                              58            0      0.00%  10000.00%
                              60            0      0.00%  10000.00%
                              62            0      0.00%  10000.00%
                              64            0      0.00%  10000.00%
                              66            0      0.00%  10000.00%
                              68            0      0.00%  10000.00%
                              70            0      0.00%  10000.00%
                              72            0      0.00%  10000.00%
                              74            0      0.00%  10000.00%
                              76            0      0.00%  10000.00%
                              78            0      0.00%  10000.00%
                              80            0      0.00%  10000.00%
                              82            0      0.00%  10000.00%
                              84            0      0.00%  10000.00%
                              86            0      0.00%  10000.00%
                              88            0      0.00%  10000.00%
                              90            0      0.00%  10000.00%
                              92            0      0.00%  10000.00%
                              94            0      0.00%  10000.00%
                              96            0      0.00%  10000.00%
                              98            0      0.00%  10000.00%
system.cpu0.IQ:residence:FloatDiv.max_value           27                      
system.cpu0.IQ:residence:FloatDiv.end_dist

system.cpu0.IQ:residence:FloatSqrt.start_dist
system.cpu0.IQ:residence:FloatSqrt.samples            0                      
system.cpu0.IQ:residence:FloatSqrt.min_value            0                      
                               0            0                      
                               2            0                      
                               4            0                      
                               6            0                      
                               8            0                      
                              10            0                      
                              12            0                      
                              14            0                      
                              16            0                      
                              18            0                      
                              20            0                      
                              22            0                      
                              24            0                      
                              26            0                      
                              28            0                      
                              30            0                      
                              32            0                      
                              34            0                      
                              36            0                      
                              38            0                      
                              40            0                      
                              42            0                      
                              44            0                      
                              46            0                      
                              48            0                      
                              50            0                      
                              52            0                      
                              54            0                      
                              56            0                      
                              58            0                      
                              60            0                      
                              62            0                      
                              64            0                      
                              66            0                      
                              68            0                      
                              70            0                      
                              72            0                      
                              74            0                      
                              76            0                      
                              78            0                      
                              80            0                      
                              82            0                      
                              84            0                      
                              86            0                      
                              88            0                      
                              90            0                      
                              92            0                      
                              94            0                      
                              96            0                      
                              98            0                      
system.cpu0.IQ:residence:FloatSqrt.max_value            0                      
system.cpu0.IQ:residence:FloatSqrt.end_dist

system.cpu0.IQ:residence:MemRead.start_dist
system.cpu0.IQ:residence:MemRead.samples     38705501                      
system.cpu0.IQ:residence:MemRead.min_value            1                      
                               0      4061082   1049.23%   1049.23%
                               2      6336205   1637.03%   2686.26%
                               4      3241058    837.36%   3523.62%
                               6      2677937    691.88%   4215.49%
                               8      2029288    524.29%   4739.78%
                              10      1696466    438.30%   5178.08%
                              12      1289028    333.03%   5511.12%
                              14      1143504    295.44%   5806.56%
                              16      1224872    316.46%   6123.02%
                              18      1720432    444.49%   6567.51%
                              20      2494704    644.53%   7212.04%
                              22      2801392    723.77%   7935.81%
                              24       890099    229.97%   8165.78%
                              26       232434     60.05%   8225.83%
                              28       211084     54.54%   8280.37%
                              30       161552     41.74%   8322.11%
                              32       155035     40.06%   8362.16%
                              34       217122     56.10%   8418.26%
                              36       247362     63.91%   8482.17%
                              38       244285     63.11%   8545.28%
                              40       175490     45.34%   8590.62%
                              42       184925     47.78%   8638.40%
                              44       132640     34.27%   8672.67%
                              46       173420     44.81%   8717.47%
                              48        82782     21.39%   8738.86%
                              50       120147     31.04%   8769.90%
                              52        76478     19.76%   8789.66%
                              54        93030     24.04%   8813.70%
                              56        42180     10.90%   8824.59%
                              58        46794     12.09%   8836.68%
                              60        74401     19.22%   8855.91%
                              62        69843     18.04%   8873.95%
                              64       136315     35.22%   8909.17%
                              66        52623     13.60%   8922.77%
                              68        38157      9.86%   8932.62%
                              70        28798      7.44%   8940.06%
                              72        38044      9.83%   8949.89%
                              74        32498      8.40%   8958.29%
                              76        27520      7.11%   8965.40%
                              78        64206     16.59%   8981.99%
                              80        37813      9.77%   8991.76%
                              82        26069      6.74%   8998.49%
                              84        40232     10.39%   9008.89%
                              86        51415     13.28%   9022.17%
                              88        20109      5.20%   9027.37%
                              90        25130      6.49%   9033.86%
                              92        20535      5.31%   9039.16%
                              94        26816      6.93%   9046.09%
                              96        17252      4.46%   9050.55%
                              98         8578      2.22%   9052.77%
system.cpu0.IQ:residence:MemRead.overflows      3666320                      
system.cpu0.IQ:residence:MemRead.max_value        19706                      
system.cpu0.IQ:residence:MemRead.end_dist

system.cpu0.IQ:residence:MemWrite.start_dist
system.cpu0.IQ:residence:MemWrite.samples     23076397                      
system.cpu0.IQ:residence:MemWrite.min_value            1                      
                               0      2080309    901.49%    901.49%
                               2      4071271   1764.26%   2665.75%
                               4      2424124   1050.48%   3716.22%
                               6      1986266    860.73%   4576.96%
                               8      1531279    663.57%   5240.53%
                              10       968472    419.68%   5660.21%
                              12       784749    340.07%   6000.27%
                              14       700196    303.43%   6303.70%
                              16       759828    329.27%   6632.97%
                              18      1012317    438.68%   7071.65%
                              20      1352704    586.19%   7657.83%
                              22      1683827    729.68%   8387.51%
                              24       867768    376.04%   8763.55%
                              26       231073    100.13%   8863.68%
                              28       186646     80.88%   8944.56%
                              30       131187     56.85%   9001.41%
                              32       187031     81.05%   9082.46%
                              34       187784     81.37%   9163.84%
                              36       219882     95.28%   9259.12%
                              38       166545     72.17%   9331.29%
                              40       162029     70.21%   9401.51%
                              42       119035     51.58%   9453.09%
                              44       106941     46.34%   9499.43%
                              46        71302     30.90%   9530.33%
                              48        55656     24.12%   9554.45%
                              50       152841     66.23%   9620.68%
                              52        69754     30.23%   9650.91%
                              54        34735     15.05%   9665.96%
                              56        34714     15.04%   9681.00%
                              58        21572      9.35%   9690.35%
                              60        45891     19.89%   9710.24%
                              62        75110     32.55%   9742.79%
                              64       120714     52.31%   9795.10%
                              66        19743      8.56%   9803.65%
                              68        13576      5.88%   9809.53%
                              70        20405      8.84%   9818.38%
                              72        24697     10.70%   9829.08%
                              74        16481      7.14%   9836.22%
                              76        32419     14.05%   9850.27%
                              78        39827     17.26%   9867.53%
                              80        32307     14.00%   9881.53%
                              82        18217      7.89%   9889.42%
                              84        10805      4.68%   9894.10%
                              86         7647      3.31%   9897.42%
                              88        15847      6.87%   9904.29%
                              90        10436      4.52%   9908.81%
                              92        11755      5.09%   9913.90%
                              94         6142      2.66%   9916.56%
                              96         6642      2.88%   9919.44%
                              98         7266      3.15%   9922.59%
system.cpu0.IQ:residence:MemWrite.overflows       178633                      
system.cpu0.IQ:residence:MemWrite.max_value        19711                      
system.cpu0.IQ:residence:MemWrite.end_dist

system.cpu0.IQ:residence:IprAccess.start_dist
system.cpu0.IQ:residence:IprAccess.samples      1447013                      
system.cpu0.IQ:residence:IprAccess.min_value            1                      
                               0       302152   2088.11%   2088.11%
                               2       255992   1769.11%   3857.21%
                               4        82009    566.75%   4423.96%
                               6       276948   1913.93%   6337.89%
                               8       231439   1599.43%   7937.32%
                              10        64220    443.81%   8381.13%
                              12        45673    315.64%   8696.76%
                              14        35179    243.11%   8939.88%
                              16        36022    248.94%   9188.82%
                              18        20023    138.37%   9327.19%
                              20        18474    127.67%   9454.86%
                              22        17822    123.16%   9578.03%
                              24        11236     77.65%   9655.68%
                              26         4181     28.89%   9684.57%
                              28         6545     45.23%   9729.80%
                              30         2944     20.35%   9750.15%
                              32         1875     12.96%   9763.11%
                              34         2247     15.53%   9778.63%
                              36         3854     26.63%   9805.27%
                              38         4027     27.83%   9833.10%
                              40          883      6.10%   9839.20%
                              42          401      2.77%   9841.97%
                              44         1070      7.39%   9849.37%
                              46          762      5.27%   9854.63%
                              48         1786     12.34%   9866.97%
                              50          883      6.10%   9873.08%
                              52          852      5.89%   9878.96%
                              54          661      4.57%   9883.53%
                              56          600      4.15%   9887.68%
                              58         2541     17.56%   9905.24%
                              60          924      6.39%   9911.62%
                              62          642      4.44%   9916.06%
                              64         2587     17.88%   9933.94%
                              66          332      2.29%   9936.23%
                              68          304      2.10%   9938.34%
                              70          303      2.09%   9940.43%
                              72          430      2.97%   9943.40%
                              74          301      2.08%   9945.48%
                              76          527      3.64%   9949.12%
                              78          737      5.09%   9954.22%
                              80          432      2.99%   9957.20%
                              82          233      1.61%   9958.81%
                              84          696      4.81%   9963.62%
                              86          781      5.40%   9969.02%
                              88          304      2.10%   9971.12%
                              90          784      5.42%   9976.54%
                              92          322      2.23%   9978.76%
                              94          433      2.99%   9981.76%
                              96          388      2.68%   9984.44%
                              98          147      1.02%   9985.45%
system.cpu0.IQ:residence:IprAccess.overflows         2105                      
system.cpu0.IQ:residence:IprAccess.max_value          261                      
system.cpu0.IQ:residence:IprAccess.end_dist

system.cpu0.IQ:residence:InstPrefetch.start_dist
system.cpu0.IQ:residence:InstPrefetch.samples            0                      
system.cpu0.IQ:residence:InstPrefetch.min_value            0                      
                               0            0                      
                               2            0                      
                               4            0                      
                               6            0                      
                               8            0                      
                              10            0                      
                              12            0                      
                              14            0                      
                              16            0                      
                              18            0                      
                              20            0                      
                              22            0                      
                              24            0                      
                              26            0                      
                              28            0                      
                              30            0                      
                              32            0                      
                              34            0                      
                              36            0                      
                              38            0                      
                              40            0                      
                              42            0                      
                              44            0                      
                              46            0                      
                              48            0                      
                              50            0                      
                              52            0                      
                              54            0                      
                              56            0                      
                              58            0                      
                              60            0                      
                              62            0                      
                              64            0                      
                              66            0                      
                              68            0                      
                              70            0                      
                              72            0                      
                              74            0                      
                              76            0                      
                              78            0                      
                              80            0                      
                              82            0                      
                              84            0                      
                              86            0                      
                              88            0                      
                              90            0                      
                              92            0                      
                              94            0                      
                              96            0                      
                              98            0                      
system.cpu0.IQ:residence:InstPrefetch.max_value            0                      
system.cpu0.IQ:residence:InstPrefetch.end_dist

system.cpu0.ISSUE:(null)_delay.start_dist 
system.cpu0.ISSUE:(null)_delay.samples           9041                      
system.cpu0.ISSUE:(null)_delay.min_value            1                      
                               0         8093   8951.44%   8951.44%
                               2          621    686.87%   9638.31%
                               4          142    157.06%   9795.38%
                               6           30     33.18%   9828.56%
                               8          126    139.37%   9967.92%
                              10            4      4.42%   9972.35%
                              12            5      5.53%   9977.88%
                              14            2      2.21%   9980.09%
                              16           12     13.27%   9993.36%
                              18            2      2.21%   9995.58%
                              20            2      2.21%   9997.79%
                              22            2      2.21%  10000.00%
                              24            0      0.00%  10000.00%
                              26            0      0.00%  10000.00%
                              28            0      0.00%  10000.00%
                              30            0      0.00%  10000.00%
                              32            0      0.00%  10000.00%
                              34            0      0.00%  10000.00%
                              36            0      0.00%  10000.00%
                              38            0      0.00%  10000.00%
                              40            0      0.00%  10000.00%
                              42            0      0.00%  10000.00%
                              44            0      0.00%  10000.00%
                              46            0      0.00%  10000.00%
                              48            0      0.00%  10000.00%
                              50            0      0.00%  10000.00%
                              52            0      0.00%  10000.00%
                              54            0      0.00%  10000.00%
                              56            0      0.00%  10000.00%
                              58            0      0.00%  10000.00%
                              60            0      0.00%  10000.00%
                              62            0      0.00%  10000.00%
                              64            0      0.00%  10000.00%
                              66            0      0.00%  10000.00%
                              68            0      0.00%  10000.00%
                              70            0      0.00%  10000.00%
                              72            0      0.00%  10000.00%
                              74            0      0.00%  10000.00%
                              76            0      0.00%  10000.00%
                              78            0      0.00%  10000.00%
                              80            0      0.00%  10000.00%
                              82            0      0.00%  10000.00%
                              84            0      0.00%  10000.00%
                              86            0      0.00%  10000.00%
                              88            0      0.00%  10000.00%
                              90            0      0.00%  10000.00%
                              92            0      0.00%  10000.00%
                              94            0      0.00%  10000.00%
                              96            0      0.00%  10000.00%
                              98            0      0.00%  10000.00%
system.cpu0.ISSUE:(null)_delay.max_value           22                      
system.cpu0.ISSUE:(null)_delay.end_dist

system.cpu0.ISSUE:IntAlu_delay.start_dist 
system.cpu0.ISSUE:IntAlu_delay.samples      107135954                      
system.cpu0.ISSUE:IntAlu_delay.min_value            0                      
                               0     96287700   8987.43%   8987.43%
                               2      5396120    503.67%   9491.10%
                               4      1816142    169.52%   9660.62%
                               6       803023     74.95%   9735.57%
                               8       467184     43.61%   9779.18%
                              10       325962     30.43%   9809.60%
                              12       316676     29.56%   9839.16%
                              14       555597     51.86%   9891.02%
                              16       441450     41.20%   9932.23%
                              18       283115     26.43%   9958.65%
                              20       221025     20.63%   9979.28%
                              22       211829     19.77%   9999.05%
                              24        10131      0.95%  10000.00%
                              26            0      0.00%  10000.00%
                              28            0      0.00%  10000.00%
                              30            0      0.00%  10000.00%
                              32            0      0.00%  10000.00%
                              34            0      0.00%  10000.00%
                              36            0      0.00%  10000.00%
                              38            0      0.00%  10000.00%
                              40            0      0.00%  10000.00%
                              42            0      0.00%  10000.00%
                              44            0      0.00%  10000.00%
                              46            0      0.00%  10000.00%
                              48            0      0.00%  10000.00%
                              50            0      0.00%  10000.00%
                              52            0      0.00%  10000.00%
                              54            0      0.00%  10000.00%
                              56            0      0.00%  10000.00%
                              58            0      0.00%  10000.00%
                              60            0      0.00%  10000.00%
                              62            0      0.00%  10000.00%
                              64            0      0.00%  10000.00%
                              66            0      0.00%  10000.00%
                              68            0      0.00%  10000.00%
                              70            0      0.00%  10000.00%
                              72            0      0.00%  10000.00%
                              74            0      0.00%  10000.00%
                              76            0      0.00%  10000.00%
                              78            0      0.00%  10000.00%
                              80            0      0.00%  10000.00%
                              82            0      0.00%  10000.00%
                              84            0      0.00%  10000.00%
                              86            0      0.00%  10000.00%
                              88            0      0.00%  10000.00%
                              90            0      0.00%  10000.00%
                              92            0      0.00%  10000.00%
                              94            0      0.00%  10000.00%
                              96            0      0.00%  10000.00%
                              98            0      0.00%  10000.00%
system.cpu0.ISSUE:IntAlu_delay.max_value           24                      
system.cpu0.ISSUE:IntAlu_delay.end_dist

system.cpu0.ISSUE:IntMult_delay.start_dist
system.cpu0.ISSUE:IntMult_delay.samples        386406                      
system.cpu0.ISSUE:IntMult_delay.min_value            0                      
                               0       288002   7453.35%   7453.35%
                               2        50436   1305.26%   8758.61%
                               4        23514    608.53%   9367.14%
                               6         6494    168.06%   9535.20%
                               8         1337     34.60%   9569.80%
                              10         2314     59.89%   9629.69%
                              12         1798     46.53%   9676.22%
                              14         2104     54.45%   9730.67%
                              16          932     24.12%   9754.79%
                              18         3321     85.95%   9840.74%
                              20         3170     82.04%   9922.78%
                              22         2163     55.98%   9978.75%
                              24          821     21.25%  10000.00%
                              26            0      0.00%  10000.00%
                              28            0      0.00%  10000.00%
                              30            0      0.00%  10000.00%
                              32            0      0.00%  10000.00%
                              34            0      0.00%  10000.00%
                              36            0      0.00%  10000.00%
                              38            0      0.00%  10000.00%
                              40            0      0.00%  10000.00%
                              42            0      0.00%  10000.00%
                              44            0      0.00%  10000.00%
                              46            0      0.00%  10000.00%
                              48            0      0.00%  10000.00%
                              50            0      0.00%  10000.00%
                              52            0      0.00%  10000.00%
                              54            0      0.00%  10000.00%
                              56            0      0.00%  10000.00%
                              58            0      0.00%  10000.00%
                              60            0      0.00%  10000.00%
                              62            0      0.00%  10000.00%
                              64            0      0.00%  10000.00%
                              66            0      0.00%  10000.00%
                              68            0      0.00%  10000.00%
                              70            0      0.00%  10000.00%
                              72            0      0.00%  10000.00%
                              74            0      0.00%  10000.00%
                              76            0      0.00%  10000.00%
                              78            0      0.00%  10000.00%
                              80            0      0.00%  10000.00%
                              82            0      0.00%  10000.00%
                              84            0      0.00%  10000.00%
                              86            0      0.00%  10000.00%
                              88            0      0.00%  10000.00%
                              90            0      0.00%  10000.00%
                              92            0      0.00%  10000.00%
                              94            0      0.00%  10000.00%
                              96            0      0.00%  10000.00%
                              98            0      0.00%  10000.00%
system.cpu0.ISSUE:IntMult_delay.max_value           24                      
system.cpu0.ISSUE:IntMult_delay.end_dist

system.cpu0.ISSUE:IntDiv_delay.start_dist 
system.cpu0.ISSUE:IntDiv_delay.samples              0                      
system.cpu0.ISSUE:IntDiv_delay.min_value            0                      
                               0            0                      
                               2            0                      
                               4            0                      
                               6            0                      
                               8            0                      
                              10            0                      
                              12            0                      
                              14            0                      
                              16            0                      
                              18            0                      
                              20            0                      
                              22            0                      
                              24            0                      
                              26            0                      
                              28            0                      
                              30            0                      
                              32            0                      
                              34            0                      
                              36            0                      
                              38            0                      
                              40            0                      
                              42            0                      
                              44            0                      
                              46            0                      
                              48            0                      
                              50            0                      
                              52            0                      
                              54            0                      
                              56            0                      
                              58            0                      
                              60            0                      
                              62            0                      
                              64            0                      
                              66            0                      
                              68            0                      
                              70            0                      
                              72            0                      
                              74            0                      
                              76            0                      
                              78            0                      
                              80            0                      
                              82            0                      
                              84            0                      
                              86            0                      
                              88            0                      
                              90            0                      
                              92            0                      
                              94            0                      
                              96            0                      
                              98            0                      
system.cpu0.ISSUE:IntDiv_delay.max_value            0                      
system.cpu0.ISSUE:IntDiv_delay.end_dist

system.cpu0.ISSUE:FloatAdd_delay.start_dist
system.cpu0.ISSUE:FloatAdd_delay.samples         9421                      
system.cpu0.ISSUE:FloatAdd_delay.min_value            0                      
                               0         4833   5130.03%   5130.03%
                               2          158    167.71%   5297.74%
                               4            7      7.43%   5305.17%
                               6          433    459.61%   5764.78%
                               8           14     14.86%   5779.64%
                              10          462    490.39%   6270.04%
                              12          820    870.40%   7140.43%
                              14          325    344.97%   7485.40%
                              16         2369   2514.60%  10000.00%
                              18            0      0.00%  10000.00%
                              20            0      0.00%  10000.00%
                              22            0      0.00%  10000.00%
                              24            0      0.00%  10000.00%
                              26            0      0.00%  10000.00%
                              28            0      0.00%  10000.00%
                              30            0      0.00%  10000.00%
                              32            0      0.00%  10000.00%
                              34            0      0.00%  10000.00%
                              36            0      0.00%  10000.00%
                              38            0      0.00%  10000.00%
                              40            0      0.00%  10000.00%
                              42            0      0.00%  10000.00%
                              44            0      0.00%  10000.00%
[...]
system.cpu0.kern.ipl_ticks_31               100409950      9.48%    100.00%
system.cpu0.kern.ipl_used                    0.869759                      
system.cpu0.kern.ipl_used_0                  0.983346                      
system.cpu0.kern.ipl_used_21                        1                      
system.cpu0.kern.ipl_used_22                        1                      
system.cpu0.kern.ipl_used_31                 0.775980                      
system.cpu0.kern.mode_good_kernel                3209                      
system.cpu0.kern.mode_good_user                  2873                      
system.cpu0.kern.mode_good_idle                   130                      
system.cpu0.kern.mode_good_interrupt              206                      
system.cpu0.kern.mode_switch_kernel             14118                      
system.cpu0.kern.mode_switch_user                2873                      
system.cpu0.kern.mode_switch_idle                9779                      
system.cpu0.kern.mode_switch_interrupt            206                      
system.cpu0.kern.mode_switch_good            0.237915                      
system.cpu0.kern.mode_switch_good_kernel     0.227298                      
system.cpu0.kern.mode_switch_good_user              1                      
system.cpu0.kern.mode_switch_good_idle       0.013294                      
system.cpu0.kern.mode_switch_good_interrupt            1                      
system.cpu0.kern.mode_ticks_kernel           69004611      6.51%      6.51%
system.cpu0.kern.mode_ticks_user             16483532      1.56%      8.07%
system.cpu0.kern.mode_ticks_idle            972040502     91.75%     99.82%
system.cpu0.kern.mode_ticks_interrupt         1959496      0.18%    100.00%
system.cpu0.kern.swap_context                    5486                      
system.cpu0.kern.syscall                          669                      
system.cpu0.kern.syscall_exit                       1      0.15%      0.15%
system.cpu0.kern.syscall_fork                      12      1.79%      1.94%
system.cpu0.kern.syscall_read                      47      7.03%      8.97%
system.cpu0.kern.syscall_write                     49      7.32%     16.29%
system.cpu0.kern.syscall_close                     74     11.06%     27.35%
system.cpu0.kern.syscall_chdir                      2      0.30%     27.65%
system.cpu0.kern.syscall_chmod                      1      0.15%     27.80%
system.cpu0.kern.syscall_obreak                    60      8.97%     36.77%
system.cpu0.kern.syscall_lseek                     12      1.79%     38.57%
system.cpu0.kern.syscall_getpid                    11      1.64%     40.21%
system.cpu0.kern.syscall_setuid                     4      0.60%     40.81%
system.cpu0.kern.syscall_getuid                    12      1.79%     42.60%
system.cpu0.kern.syscall_access                     4      0.60%     43.20%
system.cpu0.kern.syscall_dup                        4      0.60%     43.80%
system.cpu0.kern.syscall_open                      99     14.80%     58.59%
system.cpu0.kern.syscall_getgid                    12      1.79%     60.39%
system.cpu0.kern.syscall_sigprocmask               17      2.54%     62.93%
system.cpu0.kern.syscall_ioctl                     23      3.44%     66.37%
system.cpu0.kern.syscall_readlink                   3      0.45%     66.82%
system.cpu0.kern.syscall_execve                     9      1.35%     68.16%
system.cpu0.kern.syscall_pre_F64_stat              36      5.38%     73.54%
system.cpu0.kern.syscall_pre_F64_lstat              1      0.15%     73.69%
system.cpu0.kern.syscall_mmap                      69     10.31%     84.01%
system.cpu0.kern.syscall_munmap                    11      1.64%     85.65%
system.cpu0.kern.syscall_mprotect                  17      2.54%     88.19%
system.cpu0.kern.syscall_gethostname                3      0.45%     88.64%
system.cpu0.kern.syscall_dup2                       3      0.45%     89.09%
system.cpu0.kern.syscall_pre_F64_fstat             36      5.38%     94.47%
system.cpu0.kern.syscall_fcntl                     18      2.69%     97.16%
system.cpu0.kern.syscall_socket                     4      0.60%     97.76%
system.cpu0.kern.syscall_connect                    4      0.60%     98.36%
system.cpu0.kern.syscall_setgid                     4      0.60%     98.95%
system.cpu0.kern.syscall_getrlimit                  2      0.30%     99.25%
system.cpu0.kern.syscall_setsid                     3      0.45%     99.70%
system.cpu0.kern.syscall_getsysinfo                 1      0.15%     99.85%
system.cpu0.kern.syscall_setsysinfo                 1      0.15%    100.00%
system.cpu0.numCycles                      1059489799                      
system.cpu0inst_class_dist.start_dist
                   All ops ready            0      0.00%           
                One op not ready            0      0.00%           
           None rdy, mult chains            0      0.00%           
           None rdy, one chained            0      0.00%           
        None rdy, all self-timed            0      0.00%           
system.cpu0inst_class_dist.end_dist
system.htbus.addr_idle_cycles              1058510714                      
system.htbus.addr_idle_fraction              0.999076                      
system.htbus.addr_queued                    31.835675                      
system.htbus.addr_queued_cycles               4306762                      
system.htbus.addr_requests                     135281                      
system.htbus.bus_blocked                            0                      
system.htbus.bus_blocked_cycles                     0                      
system.htbus.bus_blocked_fraction                   0                      
system.htbus.data_idle_cycles              1058408840                      
system.htbus.data_idle_fraction              0.998980                      
system.htbus.data_queued                            1                      
system.htbus.data_queued_cycles                  9155                      
system.htbus.data_requests                       9155                      
system.htbus.null_grants                            0                      
system.kern.fnCalls                                 0                      
system.l2.avg_blocked_cycles_no_mshrs    <err: div-0>                      
system.l2.avg_blocked_cycles_no_targets  <err: div-0>                      
system.l2.avg_refs                           2.357581                      
system.l2.blocked_no_mshrs                          0                      
system.l2.blocked_no_targets                        0                      
system.l2.blocked_cycles_no_mshrs                   0                      
system.l2.blocked_cycles_no_targets                 0                      
system.l2.cache_copies                              0                      
system.l2.demand_accesses                     3310272                      
system.l2.demand_avg_miss_latency           67.014192                      
system.l2.demand_avg_mshr_miss_latency      37.095514                      
system.l2.demand_hits                         2128842                      
system.l2.demand_miss_latency                79172577                      
system.l2.demand_miss_rate                   0.356898                      
system.l2.demand_misses                       1181430                      
system.l2.demand_mshr_hits                          0                      
system.l2.demand_mshr_miss_latency           43825753                      
system.l2.demand_mshr_miss_rate              0.356898                      
system.l2.demand_mshr_misses                  1181430                      
system.l2.fast_writes                               0                      
system.l2.mshr_cap_events                           0                      
system.l2.no_allocate_misses                        0                      
system.l2.overall_accesses                    3963082                      
system.l2.overall_avg_miss_latency          67.014192                      
system.l2.overall_avg_mshr_miss_latency     37.095514                      
system.l2.overall_avg_mshr_uncacheable_latency   197.032847                      
system.l2.overall_hits                        2781652                      
system.l2.overall_miss_latency               79172577                      
system.l2.overall_miss_rate                  0.298109                      
system.l2.overall_misses                      1181430                      
system.l2.overall_mshr_hits                         0                      
system.l2.overall_mshr_miss_latency          43825753                      
system.l2.overall_mshr_miss_rate             0.298109                      
system.l2.overall_mshr_misses                 1181430                      
system.l2.overall_mshr_uncacheable_latency      4492940                      
system.l2.overall_mshr_uncacheable_misses        22803                      
system.l2.prefetcher.num_hwpf_already_in_cache            0                      
system.l2.prefetcher.num_hwpf_already_in_mshr            0                      
system.l2.prefetcher.num_hwpf_already_in_prefetcher            0                      
system.l2.prefetcher.num_hwpf_evicted               0                      
system.l2.prefetcher.num_hwpf_identified            0                      
system.l2.prefetcher.num_hwpf_issued                0                      
system.l2.prefetcher.num_hwpf_removed_MSHR_hit            0                      
system.l2.prefetcher.num_hwpf_span_page             0                      
system.l2.prefetcher.num_hwpf_squashed_from_miss            0                      
system.l2.read_accesses                       3310272                      
system.l2.read_avg_miss_latency             67.014192                      
system.l2.read_avg_mshr_miss_latency        37.095514                      
system.l2.read_avg_mshr_uncacheable_latency   180.303082                      
system.l2.read_hits                           2128842                      
system.l2.read_miss_latency                  79172577                      
system.l2.read_miss_rate                     0.356898                      
system.l2.read_misses                         1181430                      
system.l2.read_mshr_miss_latency             43825753                      
system.l2.read_mshr_miss_rate                0.356898                      
system.l2.read_mshr_misses                    1181430                      
system.l2.read_mshr_uncacheable                 10027                      
system.l2.read_mshr_uncacheable_latency       1807899                      
system.l2.replacements                        1147368                      
system.l2.sampled_refs                        1179517                      
system.l2.soft_prefetch_mshr_full                   0                      
system.l2.tagsinuse                      32267.718245                      
system.l2.total_refs                          2780807                      
system.l2.warmup_cycle                        3560118                      
system.l2.write_avg_mshr_uncacheable_latency   210.162884                      
system.l2.write_mshr_uncacheable                12776                      
system.l2.write_mshr_uncacheable_latency      2685041                      
system.l2.writeback_accesses                   652810                      
system.l2.writeback_hits                       652810                      
system.l2.writebacks                           145664                      
system.l2bus.addr_idle_cycles              1055435389                      
system.l2bus.addr_idle_fraction              0.996173                      
system.l2bus.addr_queued                     4.050615                      
system.l2bus.addr_queued_cycles              16419322                      
system.l2bus.addr_requests                    4053538                      
system.l2bus.bus_blocked                          222                      
system.l2bus.bus_blocked_cycles                 99222                      
system.l2bus.bus_blocked_fraction            0.000094                      
system.l2bus.data_idle_cycles              1055503837                      
system.l2bus.data_idle_fraction              0.996238                      
system.l2bus.data_queued                     1.016047                      
system.l2bus.data_queued_cycles               3373607                      
system.l2bus.data_requests                    3320325                      
system.l2bus.null_grants                        38047                      
system.membus.addr_idle_cycles             1058009234                      
system.membus.addr_idle_fraction             0.998603                      
system.membus.addr_queued                   28.189297                      
system.membus.addr_queued_cycles             41508712                      
system.membus.addr_requests                   1472499                      
system.membus.bus_blocked                           0                      
system.membus.bus_blocked_cycles                    0                      
system.membus.bus_blocked_fraction                  0                      
system.membus.data_idle_cycles             1053930480                      
system.membus.data_idle_fraction             0.994753                      
system.membus.data_queued                    2.196159                      
system.membus.data_queued_cycles              2617125                      
system.membus.data_requests                   1191683                      
system.membus.null_grants                           0                      
system.pcibus.addr_idle_cycles             1058322880                      
system.pcibus.addr_idle_fraction             0.998899                      
system.pcibus.addr_queued                  339.319535                      
system.pcibus.addr_queued_cycles             45903486                      
system.pcibus.addr_requests                    135281                      
system.pcibus.bus_blocked                        3426                      
system.pcibus.bus_blocked_cycles                99351                      
system.pcibus.bus_blocked_fraction           0.000094                      
system.pcibus.data_idle_cycles             1057731428                      
system.pcibus.data_idle_fraction             0.998340                      
system.pcibus.data_queued                    2.137957                      
system.pcibus.data_queued_cycles                19573                      
system.pcibus.data_requests                      9155                      
system.pcibus.null_grants                           0                      
system.ram.accesses                           1382120                      
system.ram.bytes_requested                          0                      
system.ram.bytes_sent                               0                      
system.ram.compressed_responses                     0                      
system.tsunami.etherdev0.coalescedRxDesc <err: div-0>                      
system.tsunami.etherdev0.coalescedRxIdle <err: div-0>                      
system.tsunami.etherdev0.coalescedRxOk       no value                      
system.tsunami.etherdev0.coalescedRxOrn  <err: div-0>                      
system.tsunami.etherdev0.coalescedSwi    <err: div-0>                      
system.tsunami.etherdev0.coalescedTotal  <err: div-0>                      
system.tsunami.etherdev0.coalescedTxDesc <err: div-0>                      
system.tsunami.etherdev0.coalescedTxIdle <err: div-0>                      
system.tsunami.etherdev0.coalescedTxOk   <err: div-0>                      
system.tsunami.etherdev0.descDMAReads               0                      
system.tsunami.etherdev0.descDMAWrites              0                      
system.tsunami.etherdev0.descDmaReadBytes            0                      
system.tsunami.etherdev0.descDmaWriteBytes            0                      
system.tsunami.etherdev0.dma.avg_large_transaction_latency <err: div-0>                      
system.tsunami.etherdev0.dma.avg_small_transaction_latency <err: div-0>                      
system.tsunami.etherdev0.dma.avg_transaction_latency <err: div-0>                      
system.tsunami.etherdev0.dma.bytes_transfered            0                      
system.tsunami.etherdev0.dma.large_transaction_latency            0                      
system.tsunami.etherdev0.dma.large_transactions            0                      
system.tsunami.etherdev0.dma.packets_sent            0                      
system.tsunami.etherdev0.dma.requests               0                      
system.tsunami.etherdev0.dma.round_trip_latency     no value                      
system.tsunami.etherdev0.dma.small_transaction_latency            0                      
system.tsunami.etherdev0.dma.small_transactions            0                      
system.tsunami.etherdev0.dma.total_cycle_latency            0                      
system.tsunami.etherdev0.dma.transaction_latency            0                      
system.tsunami.etherdev0.droppedPackets             0                      
system.tsunami.etherdev0.postedInterrupts            0                      
system.tsunami.etherdev0.postedRxDesc               0                      
system.tsunami.etherdev0.postedRxIdle               0                      
system.tsunami.etherdev0.postedRxOk                 0                      
system.tsunami.etherdev0.postedRxOrn                0                      
system.tsunami.etherdev0.postedSwi                  0                      
system.tsunami.etherdev0.postedTxDesc               0                      
system.tsunami.etherdev0.postedTxIdle               0                      
system.tsunami.etherdev0.postedTxOk                 0                      
system.tsunami.etherdev0.totalRxDesc                0                      
system.tsunami.etherdev0.totalRxIdle                0                      
system.tsunami.etherdev0.totalRxOk                  0                      
system.tsunami.etherdev0.totalRxOrn                 0                      
system.tsunami.etherdev0.totalSwi                   0                      
system.tsunami.etherdev0.totalTxDesc                0                      
system.tsunami.etherdev0.totalTxIdle                0                      
system.tsunami.etherdev0.totalTxOk                  0                      
system.tsunami.ide.dma.avg_large_transaction_latency  1891.860421                      
system.tsunami.ide.dma.avg_small_transaction_latency   192.652381                      
system.tsunami.ide.dma.avg_transaction_latency  1405.047749                      
system.tsunami.ide.dma.bytes_transfered       3520984                      
system.tsunami.ide.dma.large_transaction_latency       989443                      
system.tsunami.ide.dma.large_transactions          523                      
system.tsunami.ide.dma.packets_sent             55026                      
system.tsunami.ide.dma.requests                   733                      
system.tsunami.ide.dma.round_trip_latency  1066.942355                      
system.tsunami.ide.dma.small_transaction_latency        40457                      
system.tsunami.ide.dma.small_transactions          210                      
system.tsunami.ide.dma.total_cycle_latency     58709570                      
system.tsunami.ide.dma.transaction_latency      1029900                      

---------- End Simulation Statistics   ----------
