
---------- Begin Simulation Statistics ----------
host_inst_rate                                  37203                      
host_mem_usage                                 196600                      
host_seconds                                  9478.94                      
host_tick_rate                                  77656                      
sim_freq                                    300000000                      
sim_insts                                   352646182                      
sim_seconds                                  2.453646                      
sim_ticks                                   736093754                      
system.cpu0.COM:IPB                          4.596662                      
system.cpu0.COM:IPC                          0.132653                      
system.cpu0.COM:branches                     21242599                      
system.cpu0.COM:bw_lim_avg               <err: div-0>                      
system.cpu0.COM:bw_lim_events                       0                      
system.cpu0.COM:bw_lim_rate                    0.0000                      
system.cpu0.COM:bw_lim_stdev_0_mean      <err: div-0>                      
system.cpu0.COM:bw_lim_stdev_0_stdev     <err: div-0>                      
**Ignore: system.cpu0.COM:bw_lim_stdev_0_TOT       0.0000                      
system.cpu0.COM:bw_limited                          0                      
system.cpu0.COM:committed_per_cycle.start_dist
system.cpu0.COM:committed_per_cycle.samples     32931147                      
system.cpu0.COM:committed_per_cycle.min_value            0                      
                               0       262032     79.57%           
                               1      7354984   2233.44%           
                               2      4388687   1332.69%           
                               3      1981781    601.80%           
                               4     18943663   5752.51%           
system.cpu0.COM:committed_per_cycle.max_value            4                      
system.cpu0.COM:committed_per_cycle.end_dist

system.cpu0.COM:count                        97645037                      
system.cpu0.COM:loads                        10776313                      
system.cpu0.COM:membars                        203346                      
system.cpu0.COM:refs                         17345417                      
system.cpu0.COM:stores                        6569104                      
system.cpu0.COM:swp_count                      207316                      
system.cpu0.DDQ:count                      7853084596                      
system.cpu0.DDQ:rate                               11                      
system.cpu0.DIS:chain_creation.start_dist
     Inst has no outstanding IDEPS            0      0.00%           
      IDEP chain reached max depth            0      0.00%           
                    Inst is a load            0      0.00%           
  Chain has multiple chained IDEPS            0      0.00%           
system.cpu0.DIS:chain_creation.end_dist
system.cpu0.DIS:chain_head_frac                     0                      
system.cpu0.DIS:chain_heads                         0                      
system.cpu0.DIS:chains_insuf                        0                      
system.cpu0.DIS:chains_insuf_rate                   0                      
system.cpu0.DIS:count                       112225530                      
system.cpu0.DIS:insufficient_chains                 0                      
system.cpu0.DIS:mod_n_stall_avg_free     <err: div-0>                      
system.cpu0.DIS:mod_n_stall_frac                    0                      
system.cpu0.DIS:mod_n_stall_free                    0                      
system.cpu0.DIS:mod_n_stalls                        0                      
system.cpu0.DIS:one_rdy_insts                       0                      
system.cpu0.DIS:one_rdy_ratio            <err: div-0>                      
system.cpu0.DIS:op_count                    133407665                      
system.cpu0.DIS:op_rate                      0.181237                      
system.cpu0.DIS:rate                         0.152461                      
system.cpu0.DIS:second_choice_clust                 0                      
system.cpu0.DIS:second_choice_stall                 0                      
system.cpu0.DIS:serialize_stall_cycles        6111652                      
system.cpu0.DIS:serializing_insts              192579                      
system.cpu0.DIS:two_input_insts                     0                      
system.cpu0.DIS:two_input_ratio                     0                      
system.cpu0.FETCH:branch_count               30641944                      
system.cpu0.FETCH:branch_rate                0.041628                      
system.cpu0.FETCH:chance_pct                        1                      
system.cpu0.FETCH:chances                    44617392                      
system.cpu0.FETCH:choice                     44617392                      
system.cpu0.FETCH:count                     154340970                      
system.cpu0.FETCH:decisions                  44617392                      
system.cpu0.FETCH:idle_cycles               691476363                      
system.cpu0.FETCH:idle_icache_blocked_cycles            0                      
system.cpu0.FETCH:idle_rate                     93.94                      
system.cpu0.FETCH:prio_changes                      0                      
system.cpu0.FETCH:rate                       0.209676                      
system.cpu0.FETCH:rate_dist.start_dist    
system.cpu0.FETCH:rate_dist.samples          44617392                      
system.cpu0.FETCH:rate_dist.min_value               0                      
                               0       112887     25.30%           
                               1      5012058   1123.34%           
                               2      2030042    454.99%           
                               3      4580792   1026.68%           
                               4     32881613   7369.69%           
system.cpu0.FETCH:rate_dist.max_value               4                      
system.cpu0.FETCH:rate_dist.end_dist

system.cpu0.FETCH:rate_dist_0.start_dist  
system.cpu0.FETCH:rate_dist_0.samples        44617392                      
system.cpu0.FETCH:rate_dist_0.min_value             0                      
                               0       112887     25.30%           
                               1      5012058   1123.34%           
                               2      2030042    454.99%           
                               3      4580792   1026.68%           
                               4     32881613   7369.69%           
system.cpu0.FETCH:rate_dist_0.max_value             4                      
system.cpu0.FETCH:rate_dist_0.end_dist

system.cpu0.IFQ:count                      3429615159                      
system.cpu0.IFQ:full_count                  100677001                      
system.cpu0.IFQ:full_rate                   13.677198                      
system.cpu0.IFQ:latency                     30.560026                      
system.cpu0.IFQ:occupancy                    4.659210                      
system.cpu0.IFQ:qfull_iq_occ               5256574065                      
system.cpu0.IFQ:qfull_iq_occ_dist_0.start_dist
system.cpu0.IFQ:qfull_iq_occ_dist_0.samples     87273942                      
system.cpu0.IFQ:qfull_iq_occ_dist_0.min_value            0                      
                               0      3840853    440.09%           
                              10       582721     66.77%           
                              20       546715     62.64%           
                              30       646714     74.10%           
                              40       784997     89.95%           
                              50       574669     65.85%           
                              60     80297273   9200.60%           
system.cpu0.IFQ:qfull_iq_occ_dist_0.max_value           64                      
system.cpu0.IFQ:qfull_iq_occ_dist_0.end_dist

system.cpu0.IFQ:qfull_rob_occ              8100595187                      
system.cpu0.IFQ:qfull_rob_occ_dist_0.start_dist
system.cpu0.IFQ:qfull_rob_occ_dist_0.samples     87273942                      
system.cpu0.IFQ:qfull_rob_occ_dist_0.min_value            1                      
                               0       812511     93.10%           
                              10      1060860    121.56%           
                              20       740973     84.90%           
                              30       309595     35.47%           
                              40       196637     22.53%           
                              50       156179     17.90%           
                              60      5335696    611.37%           
                              70      1157513    132.63%           
                              80       526018     60.27%           
                              90     73196970   8387.04%           
                             100       827913     94.86%           
                             110      1196354    137.08%           
                             120      1756723    201.29%           
                             130            0      0.00%           
system.cpu0.IFQ:qfull_rob_occ_dist_0.max_value          128                      
system.cpu0.IFQ:qfull_rob_occ_dist_0.end_dist

system.cpu0.IQ:cap_events                           0                      
system.cpu0.IQ:cap_inst                             0                      
system.cpu0.IQ:residence:(null).start_dist
system.cpu0.IQ:residence:(null).samples          5893                      
system.cpu0.IQ:residence:(null).min_value            1                      
                               0         5360   9095.54%   9095.54%
                               2          347    588.83%   9684.37%
                               4          100    169.69%   9854.06%
                               6           16     27.15%   9881.22%
                               8           56     95.03%   9976.24%
                              10            4      6.79%   9983.03%
                              12            2      3.39%   9986.42%
                              14            1      1.70%   9988.12%
                              16            2      3.39%   9991.52%
                              18            5      8.48%  10000.00%
                              20            0      0.00%  10000.00%
                              22            0      0.00%  10000.00%
                              24            0      0.00%  10000.00%
                              26            0      0.00%  10000.00%
                              28            0      0.00%  10000.00%
                              30            0      0.00%  10000.00%
                              32            0      0.00%  10000.00%
                              34            0      0.00%  10000.00%
                              36            0      0.00%  10000.00%
                              38            0      0.00%  10000.00%
                              40            0      0.00%  10000.00%
                              42            0      0.00%  10000.00%
                              44            0      0.00%  10000.00%
                              46            0      0.00%  10000.00%
                              48            0      0.00%  10000.00%
                              50            0      0.00%  10000.00%
                              52            0      0.00%  10000.00%
                              54            0      0.00%  10000.00%
                              56            0      0.00%  10000.00%
                              58            0      0.00%  10000.00%
                              60            0      0.00%  10000.00%
                              62            0      0.00%  10000.00%
                              64            0      0.00%  10000.00%
                              66            0      0.00%  10000.00%
                              68            0      0.00%  10000.00%
                              70            0      0.00%  10000.00%
                              72            0      0.00%  10000.00%
                              74            0      0.00%  10000.00%
                              76            0      0.00%  10000.00%
                              78            0      0.00%  10000.00%
                              80            0      0.00%  10000.00%
                              82            0      0.00%  10000.00%
                              84            0      0.00%  10000.00%
                              86            0      0.00%  10000.00%
                              88            0      0.00%  10000.00%
                              90            0      0.00%  10000.00%
                              92            0      0.00%  10000.00%
                              94            0      0.00%  10000.00%
                              96            0      0.00%  10000.00%
                              98            0      0.00%  10000.00%
system.cpu0.IQ:residence:(null).max_value           19                      
system.cpu0.IQ:residence:(null).end_dist

system.cpu0.IQ:residence:IntAlu.start_dist
system.cpu0.IQ:residence:IntAlu.samples      84033434                      
system.cpu0.IQ:residence:IntAlu.min_value            1                      
                               0     23847530   2837.86%   2837.86%
                               2     24610098   2928.61%   5766.47%
                               4      4499583    535.45%   6301.92%
                               6      3479924    414.11%   6716.03%
                               8      2695313    320.74%   7036.78%
                              10      1854186    220.65%   7257.42%
                              12      1713390    203.89%   7461.32%
                              14      2539947    302.25%   7763.57%
                              16      2780901    330.93%   8094.50%
                              18      1589270    189.12%   8283.62%
                              20      1597703    190.13%   8473.75%
                              22      1570276    186.86%   8660.61%
                              24       872515    103.83%   8764.44%
                              26       510620     60.76%   8825.21%
                              28       341904     40.69%   8865.89%
                              30       322148     38.34%   8904.23%
                              32       301677     35.90%   8940.13%
                              34       244435     29.09%   8969.22%
                              36       317545     37.79%   9007.01%
                              38       318540     37.91%   9044.91%
                              40       261434     31.11%   9076.02%
                              42       216494     25.76%   9101.79%
                              44       248271     29.54%   9131.33%
                              46       183205     21.80%   9153.13%
                              48       131430     15.64%   9168.77%
                              50       170702     20.31%   9189.09%
                              52       187588     22.32%   9211.41%
                              54       182525     21.72%   9233.13%
                              56        66698      7.94%   9241.07%
                              58        71347      8.49%   9249.56%
                              60        71317      8.49%   9258.04%
                              62       177340     21.10%   9279.15%
                              64       111192     13.23%   9292.38%
                              66        75581      8.99%   9301.37%
                              68        71303      8.49%   9309.86%
                              70        58009      6.90%   9316.76%
                              72        53749      6.40%   9323.16%
                              74        43252      5.15%   9328.30%
                              76        50888      6.06%   9334.36%
                              78        74827      8.90%   9343.26%
                              80        37349      4.44%   9347.71%
                              82        31251      3.72%   9351.43%
                              84        32767      3.90%   9355.33%
                              86        31666      3.77%   9359.10%
                              88        38380      4.57%   9363.66%
                              90        37336      4.44%   9368.11%
                              92        44489      5.29%   9373.40%
                              94        36652      4.36%   9377.76%
                              96        40243      4.79%   9382.55%
                              98        48471      5.77%   9388.32%
system.cpu0.IQ:residence:IntAlu.overflows      5140173                      
system.cpu0.IQ:residence:IntAlu.max_value        19711                      
system.cpu0.IQ:residence:IntAlu.end_dist

system.cpu0.IQ:residence:IntMult.start_dist
system.cpu0.IQ:residence:IntMult.samples       159767                      
system.cpu0.IQ:residence:IntMult.min_value            1                      
                               0         1974    123.55%    123.55%
                               2         1612    100.90%    224.45%
                               4         5418    339.12%    563.57%
                               6         4137    258.94%    822.51%
                               8         4121    257.94%   1080.45%
                              10         3631    227.27%   1307.72%
                              12         3140    196.54%   1504.25%
                              14         5399    337.93%   1842.18%
                              16         5514    345.13%   2187.31%
                              18         8152    510.24%   2697.55%
                              20        31653   1981.20%   4678.75%
                              22        42322   2648.98%   7327.73%
                              24        15406    964.28%   8292.01%
                              26          975     61.03%   8353.04%
                              28          124      7.76%   8360.80%
                              30         1092     68.35%   8429.15%
                              32         1046     65.47%   8494.62%
                              34         1939    121.36%   8615.98%
                              36         1543     96.58%   8712.56%
                              38         2182    136.57%   8849.14%
                              40         9397    588.17%   9437.31%
                              42         1005     62.90%   9500.21%
                              44          566     35.43%   9535.64%
                              46          140      8.76%   9544.40%
                              48          152      9.51%   9553.91%
                              50          158      9.89%   9563.80%
                              52          353     22.09%   9585.90%
                              54          163     10.20%   9596.10%
                              56          398     24.91%   9621.01%
                              58           36      2.25%   9623.26%
                              60           11      0.69%   9623.95%
                              62           24      1.50%   9625.45%
                              64           16      1.00%   9626.46%
                              66           31      1.94%   9628.40%
                              68           86      5.38%   9633.78%
                              70          156      9.76%   9643.54%
                              72          346     21.66%   9665.20%
                              74           84      5.26%   9670.46%
                              76           87      5.45%   9675.90%
                              78          292     18.28%   9694.18%
                              80           47      2.94%   9697.12%
                              82          247     15.46%   9712.58%
                              84           11      0.69%   9713.27%
                              86           20      1.25%   9714.52%
                              88           50      3.13%   9717.65%
                              90           17      1.06%   9718.72%
                              92            2      0.13%   9718.84%
                              94           11      0.69%   9719.53%
                              96            4      0.25%   9719.78%
                              98            6      0.38%   9720.15%
system.cpu0.IQ:residence:IntMult.overflows         4471                      
system.cpu0.IQ:residence:IntMult.max_value          620                      
system.cpu0.IQ:residence:IntMult.end_dist

system.cpu0.IQ:residence:IntDiv.start_dist
system.cpu0.IQ:residence:IntDiv.samples             0                      
system.cpu0.IQ:residence:IntDiv.min_value            0                      
                               0            0                      
                               2            0                      
                               4            0                      
                               6            0                      
                               8            0                      
                              10            0                      
                              12            0                      
                              14            0                      
                              16            0                      
                              18            0                      
                              20            0                      
                              22            0                      
                              24            0                      
                              26            0                      
                              28            0                      
                              30            0                      
                              32            0                      
                              34            0                      
                              36            0                      
                              38            0                      
                              40            0                      
                              42            0                      
                              44            0                      
                              46            0                      
                              48            0                      
                              50            0                      
                              52            0                      
                              54            0                      
                              56            0                      
                              58            0                      
                              60            0                      
                              62            0                      
                              64            0                      
                              66            0                      
                              68            0                      
                              70            0                      
                              72            0                      
                              74            0                      
                              76            0                      
                              78            0                      
                              80            0                      
                              82            0                      
                              84            0                      
                              86            0                      
                              88            0                      
                              90            0                      
                              92            0                      
                              94            0                      
                              96            0                      
                              98            0                      
system.cpu0.IQ:residence:IntDiv.max_value            0                      
system.cpu0.IQ:residence:IntDiv.end_dist

system.cpu0.IQ:residence:FloatAdd.start_dist
system.cpu0.IQ:residence:FloatAdd.samples         5000                      
system.cpu0.IQ:residence:FloatAdd.min_value            1                      
                               0           96    192.00%    192.00%
                               2          230    460.00%    652.00%
                               4          135    270.00%    922.00%
                               6          703   1406.00%   2328.00%
                               8          104    208.00%   2536.00%
                              10          276    552.00%   3088.00%
                              12          338    676.00%   3764.00%
                              14         1004   2008.00%   5772.00%
                              16          429    858.00%   6630.00%
                              18            1      2.00%   6632.00%
                              20            1      2.00%   6634.00%
                              22            0      0.00%   6634.00%
                              24            0      0.00%   6634.00%
                              26            0      0.00%   6634.00%
                              28            0      0.00%   6634.00%
                              30            0      0.00%   6634.00%
                              32            3      6.00%   6640.00%
                              34           49     98.00%   6738.00%
                              36          955   1910.00%   8648.00%
                              38          667   1334.00%   9982.00%
                              40            0      0.00%   9982.00%
                              42            0      0.00%   9982.00%
                              44            0      0.00%   9982.00%
                              46            0      0.00%   9982.00%
                              48            0      0.00%   9982.00%
                              50            2      4.00%   9986.00%
                              52            0      0.00%   9986.00%
                              54            0      0.00%   9986.00%
                              56            0      0.00%   9986.00%
                              58            0      0.00%   9986.00%
                              60            0      0.00%   9986.00%
                              62            1      2.00%   9988.00%
                              64            0      0.00%   9988.00%
                              66            0      0.00%   9988.00%
                              68            0      0.00%   9988.00%
                              70            0      0.00%   9988.00%
                              72            2      4.00%   9992.00%
                              74            0      0.00%   9992.00%
                              76            0      0.00%   9992.00%
                              78            0      0.00%   9992.00%
                              80            0      0.00%   9992.00%
                              82            4      8.00%  10000.00%
                              84            0      0.00%  10000.00%
                              86            0      0.00%  10000.00%
                              88            0      0.00%  10000.00%
                              90            0      0.00%  10000.00%
                              92            0      0.00%  10000.00%
                              94            0      0.00%  10000.00%
                              96            0      0.00%  10000.00%
                              98            0      0.00%  10000.00%
system.cpu0.IQ:residence:FloatAdd.max_value           83                      
system.cpu0.IQ:residence:FloatAdd.end_dist

system.cpu0.IQ:residence:FloatCmp.start_dist
system.cpu0.IQ:residence:FloatCmp.samples            0                      
system.cpu0.IQ:residence:FloatCmp.min_value            0                      
                               0            0                      
                               2            0                      
                               4            0                      
                               6            0                      
                               8            0                      
                              10            0                      
                              12            0                      
                              14            0                      
                              16            0                      
                              18            0                      
                              20            0                      
                              22            0                      
                              24            0                      
                              26            0                      
                              28            0                      
                              30            0                      
                              32            0                      
                              34            0                      
                              36            0                      
                              38            0                      
                              40            0                      
                              42            0                      
                              44            0                      
                              46            0                      
                              48            0                      
                              50            0                      
                              52            0                      
                              54            0                      
                              56            0                      
                              58            0                      
                              60            0                      
                              62            0                      
                              64            0                      
                              66            0                      
                              68            0                      
                              70            0                      
                              72            0                      
                              74            0                      
                              76            0                      
                              78            0                      
                              80            0                      
                              82            0                      
                              84            0                      
                              86            0                      
                              88            0                      
                              90            0                      
                              92            0                      
                              94            0                      
                              96            0                      
                              98            0                      
system.cpu0.IQ:residence:FloatCmp.max_value            0                      
system.cpu0.IQ:residence:FloatCmp.end_dist

system.cpu0.IQ:residence:FloatCvt.start_dist
system.cpu0.IQ:residence:FloatCvt.samples            0                      
system.cpu0.IQ:residence:FloatCvt.min_value            0                      
                               0            0                      
                               2            0                      
                               4            0                      
                               6            0                      
                               8            0                      
                              10            0                      
                              12            0                      
                              14            0                      
                              16            0                      
                              18            0                      
                              20            0                      
                              22            0                      
                              24            0                      
                              26            0                      
                              28            0                      
                              30            0                      
                              32            0                      
                              34            0                      
                              36            0                      
                              38            0                      
                              40            0                      
                              42            0                      
                              44            0                      
                              46            0                      
                              48            0                      
                              50            0                      
                              52            0                      
                              54            0                      
                              56            0                      
                              58            0                      
                              60            0                      
                              62            0                      
                              64            0                      
                              66            0                      
                              68            0                      
                              70            0                      
                              72            0                      
                              74            0                      
                              76            0                      
                              78            0                      
                              80            0                      
                              82            0                      
                              84            0                      
                              86            0                      
                              88            0                      
                              90            0                      
                              92            0                      
                              94            0                      
                              96            0                      
                              98            0                      
system.cpu0.IQ:residence:FloatCvt.max_value            0                      
system.cpu0.IQ:residence:FloatCvt.end_dist

system.cpu0.IQ:residence:FloatMult.start_dist
system.cpu0.IQ:residence:FloatMult.samples            0                      
system.cpu0.IQ:residence:FloatMult.min_value            0                      
                               0            0                      
                               2            0                      
                               4            0                      
                               6            0                      
                               8            0                      
                              10            0                      
                              12            0                      
                              14            0                      
                              16            0                      
                              18            0                      
                              20            0                      
                              22            0                      
                              24            0                      
                              26            0                      
                              28            0                      
                              30            0                      
                              32            0                      
                              34            0                      
                              36            0                      
                              38            0                      
                              40            0                      
                              42            0                      
                              44            0                      
                              46            0                      
                              48            0                      
                              50            0                      
                              52            0                      
                              54            0                      
                              56            0                      
                              58            0                      
                              60            0                      
                              62            0                      
                              64            0                      
                              66            0                      
                              68            0                      
                              70            0                      
                              72            0                      
                              74            0                      
                              76            0                      
                              78            0                      
                              80            0                      
                              82            0                      
                              84            0                      
                              86            0                      
                              88            0                      
                              90            0                      
                              92            0                      
                              94            0                      
                              96            0                      
                              98            0                      
system.cpu0.IQ:residence:FloatMult.max_value            0                      
system.cpu0.IQ:residence:FloatMult.end_dist

system.cpu0.IQ:residence:FloatDiv.start_dist
system.cpu0.IQ:residence:FloatDiv.samples           62                      
system.cpu0.IQ:residence:FloatDiv.min_value            6                      
                               0            0      0.00%      0.00%
                               2            0      0.00%      0.00%
                               4            0      0.00%      0.00%
                               6           61   9838.71%   9838.71%
                               8            0      0.00%   9838.71%
                              10            0      0.00%   9838.71%
                              12            0      0.00%   9838.71%
                              14            0      0.00%   9838.71%
                              16            0      0.00%   9838.71%
                              18            0      0.00%   9838.71%
                              20            0      0.00%   9838.71%
                              22            0      0.00%   9838.71%
                              24            0      0.00%   9838.71%
                              26            0      0.00%   9838.71%
                              28            0      0.00%   9838.71%
                              30            0      0.00%   9838.71%
                              32            0      0.00%   9838.71%
                              34            0      0.00%   9838.71%
                              36            0      0.00%   9838.71%
                              38            0      0.00%   9838.71%
                              40            0      0.00%   9838.71%
                              42            0      0.00%   9838.71%
                              44            0      0.00%   9838.71%
                              46            0      0.00%   9838.71%
                              48            0      0.00%   9838.71%
                              50            0      0.00%   9838.71%
                              52            1    161.29%  10000.00%
                              54            0      0.00%  10000.00%
                              56            0      0.00%  10000.00%
                              58            0      0.00%  10000.00%
                              60            0      0.00%  10000.00%
                              62            0      0.00%  10000.00%
                              64            0      0.00%  10000.00%
                              66            0      0.00%  10000.00%
                              68            0      0.00%  10000.00%
                              70            0      0.00%  10000.00%
                              72            0      0.00%  10000.00%
                              74            0      0.00%  10000.00%
                              76            0      0.00%  10000.00%
                              78            0      0.00%  10000.00%
                              80            0      0.00%  10000.00%
                              82            0      0.00%  10000.00%
                              84            0      0.00%  10000.00%
                              86            0      0.00%  10000.00%
                              88            0      0.00%  10000.00%
                              90            0      0.00%  10000.00%
                              92            0      0.00%  10000.00%
                              94            0      0.00%  10000.00%
                              96            0      0.00%  10000.00%
                              98            0      0.00%  10000.00%
system.cpu0.IQ:residence:FloatDiv.max_value           52                      
system.cpu0.IQ:residence:FloatDiv.end_dist

system.cpu0.IQ:residence:FloatSqrt.start_dist
system.cpu0.IQ:residence:FloatSqrt.samples            0                      
system.cpu0.IQ:residence:FloatSqrt.min_value            0                      
                               0            0                      
                               2            0                      
                               4            0                      
                               6            0                      
                               8            0                      
                              10            0                      
                              12            0                      
                              14            0                      
                              16            0                      
                              18            0                      
                              20            0                      
                              22            0                      
                              24            0                      
                              26            0                      
                              28            0                      
                              30            0                      
                              32            0                      
                              34            0                      
                              36            0                      
                              38            0                      
                              40            0                      
                              42            0                      
                              44            0                      
                              46            0                      
                              48            0                      
                              50            0                      
                              52            0                      
                              54            0                      
                              56            0                      
                              58            0                      
                              60            0                      
                              62            0                      
                              64            0                      
                              66            0                      
                              68            0                      
                              70            0                      
                              72            0                      
                              74            0                      
                              76            0                      
                              78            0                      
                              80            0                      
                              82            0                      
                              84            0                      
                              86            0                      
                              88            0                      
                              90            0                      
                              92            0                      
                              94            0                      
                              96            0                      
                              98            0                      
system.cpu0.IQ:residence:FloatSqrt.max_value            0                      
system.cpu0.IQ:residence:FloatSqrt.end_dist

system.cpu0.IQ:residence:MemRead.start_dist
system.cpu0.IQ:residence:MemRead.samples     24015422                      
system.cpu0.IQ:residence:MemRead.min_value            1                      
                               0      2564846   1068.00%   1068.00%
                               2      3989119   1661.07%   2729.07%
                               4      2078804    865.61%   3594.68%
                               6      1680184    699.63%   4294.30%
                               8      1205851    502.12%   4796.42%
                              10       995000    414.32%   5210.74%
                              12       764747    318.44%   5529.18%
                              14       693295    288.69%   5817.86%
                              16       710441    295.83%   6113.69%
                              18       948374    394.90%   6508.59%
                              20      1158961    482.59%   6991.18%
                              22      1169895    487.14%   7478.33%
                              24       412903    171.93%   7650.26%
                              26       112663     46.91%   7697.17%
                              28       100456     41.83%   7739.00%
                              30        83108     34.61%   7773.61%
                              32        80445     33.50%   7807.10%
                              34        99505     41.43%   7848.54%
                              36       119724     49.85%   7898.39%
                              38       108861     45.33%   7943.72%
                              40       104417     43.48%   7987.20%
                              42       105353     43.87%   8031.07%
                              44        74794     31.14%   8062.21%
                              46       117772     49.04%   8111.25%
                              48        53364     22.22%   8133.47%
                              50        87049     36.25%   8169.72%
                              52        39388     16.40%   8186.12%
                              54        52484     21.85%   8207.98%
                              56        31230     13.00%   8220.98%
                              58        30608     12.75%   8233.73%
                              60        60303     25.11%   8258.84%
                              62        45245     18.84%   8277.68%
                              64       120733     50.27%   8327.95%
                              66        47306     19.70%   8347.65%
                              68        30703     12.78%   8360.43%
                              70        26416     11.00%   8371.43%
                              72        24484     10.20%   8381.63%
                              74        20275      8.44%   8390.07%
                              76        19227      8.01%   8398.08%
                              78        42920     17.87%   8415.95%
                              80        24075     10.02%   8425.97%
                              82        15198      6.33%   8432.30%
                              84        17676      7.36%   8439.66%
                              86        28075     11.69%   8451.35%
                              88        14087      5.87%   8457.22%
                              90        14801      6.16%   8463.38%
                              92        13909      5.79%   8469.17%
                              94        22908      9.54%   8478.71%
                              96        24107     10.04%   8488.75%
                              98        13516      5.63%   8494.38%
system.cpu0.IQ:residence:MemRead.overflows      3615817                      
system.cpu0.IQ:residence:MemRead.max_value        19706                      
system.cpu0.IQ:residence:MemRead.end_dist

system.cpu0.IQ:residence:MemWrite.start_dist
system.cpu0.IQ:residence:MemWrite.samples     13914120                      
system.cpu0.IQ:residence:MemWrite.min_value            1                      
                               0      1257014    903.41%    903.41%
                               2      2616281   1880.31%   2783.72%
                               4      1684037   1210.31%   3994.02%
                               6      1382005    993.24%   4987.26%
                               8      1075838    773.20%   5760.46%
                              10       605750    435.35%   6195.81%
                              12       439068    315.56%   6511.37%
                              14       383000    275.26%   6786.63%
                              16       438224    314.95%   7101.58%
                              18       564470    405.68%   7507.26%
                              20       687152    493.85%   8001.11%
                              22       693771    498.61%   8499.72%
                              24       361604    259.88%   8759.60%
                              26        96732     69.52%   8829.12%
                              28       100535     72.25%   8901.38%
                              30        56383     40.52%   8941.90%
                              32        85758     61.63%   9003.53%
                              34       104520     75.12%   9078.65%
                              36        97589     70.14%   9148.79%
                              38        79993     57.49%   9206.28%
                              40        91663     65.88%   9272.15%
                              42        63526     45.66%   9317.81%
                              44        72186     51.88%   9369.69%
                              46        36804     26.45%   9396.14%
                              48        32134     23.09%   9419.24%
                              50       127411     91.57%   9510.80%
                              52        32670     23.48%   9534.28%
                              54        18673     13.42%   9547.70%
                              56        25076     18.02%   9565.73%
                              58        13863      9.96%   9575.69%
                              60        23628     16.98%   9592.67%
                              62        61783     44.40%   9637.07%
                              64       116836     83.97%   9721.04%
                              66        17506     12.58%   9733.63%
                              68        12907      9.28%   9742.90%
                              70        15435     11.09%   9753.99%
                              72        17399     12.50%   9766.50%
                              74        11990      8.62%   9775.12%
                              76        18090     13.00%   9788.12%
                              78        32053     23.04%   9811.15%
                              80        26043     18.72%   9829.87%
                              82        11299      8.12%   9837.99%
                              84         7994      5.75%   9843.74%
                              86         6852      4.92%   9848.66%
                              88         9844      7.07%   9855.74%
                              90         6745      4.85%   9860.58%
                              92         7695      5.53%   9866.11%
                              94         4235      3.04%   9869.16%
                              96         6244      4.49%   9873.64%
                              98         6376      4.58%   9878.23%
system.cpu0.IQ:residence:MemWrite.overflows       169436                      
system.cpu0.IQ:residence:MemWrite.max_value        19711                      
system.cpu0.IQ:residence:MemWrite.end_dist

system.cpu0.IQ:residence:IprAccess.start_dist
system.cpu0.IQ:residence:IprAccess.samples       923145                      
system.cpu0.IQ:residence:IprAccess.min_value            1                      
                               0       196738   2131.17%   2131.17%
                               2       162853   1764.11%   3895.28%
                               4        49270    533.72%   4429.00%
                               6       174100   1885.94%   6314.95%
                               8       146222   1583.95%   7898.90%
                              10        38467    416.70%   8315.60%
                              12        27154    294.15%   8609.74%
                              14        22660    245.47%   8855.21%
                              16        25211    273.10%   9128.31%
                              18        15183    164.47%   9292.78%
                              20        13371    144.84%   9437.62%
                              22        11158    120.87%   9558.49%
                              24         7425     80.43%   9638.92%
                              26         3667     39.72%   9678.64%
                              28         3694     40.02%   9718.66%
                              30         1269     13.75%   9732.40%
                              32         1345     14.57%   9746.97%
                              34         1657     17.95%   9764.92%
                              36         2165     23.45%   9788.38%
                              38         2352     25.48%   9813.85%
                              40          867      9.39%   9823.25%
                              42          309      3.35%   9826.59%
                              44         1345     14.57%   9841.16%
                              46          742      8.04%   9849.20%
                              48         1134     12.28%   9861.48%
                              50         1024     11.09%   9872.58%
                              52         1038     11.24%   9883.82%
                              54          758      8.21%   9892.03%
                              56          629      6.81%   9898.85%
                              58         2031     22.00%   9920.85%
                              60          575      6.23%   9927.08%
                              62          538      5.83%   9932.90%
                              64          557      6.03%   9938.94%
                              66          232      2.51%   9941.45%
                              68          205      2.22%   9943.67%
                              70          376      4.07%   9947.74%
                              72          351      3.80%   9951.55%
                              74          466      5.05%   9956.59%
                              76          201      2.18%   9958.77%
                              78          402      4.35%   9963.13%
                              80          148      1.60%   9964.73%
                              82          159      1.72%   9966.45%
                              84           73      0.79%   9967.24%
                              86          404      4.38%   9971.62%
                              88          131      1.42%   9973.04%
                              90          255      2.76%   9975.80%
                              92           82      0.89%   9976.69%
                              94          116      1.26%   9977.94%
                              96           70      0.76%   9978.70%
                              98           92      1.00%   9979.70%
system.cpu0.IQ:residence:IprAccess.overflows         1874                      
system.cpu0.IQ:residence:IprAccess.max_value          261                      
system.cpu0.IQ:residence:IprAccess.end_dist

system.cpu0.IQ:residence:InstPrefetch.start_dist
system.cpu0.IQ:residence:InstPrefetch.samples            0                      
system.cpu0.IQ:residence:InstPrefetch.min_value            0                      
                               0            0                      
                               2            0                      
                               4            0                      
                               6            0                      
                               8            0                      
                              10            0                      
                              12            0                      
                              14            0                      
                              16            0                      
                              18            0                      
                              20            0                      
                              22            0                      
                              24            0                      
                              26            0                      
                              28            0                      
                              30            0                      
                              32            0                      
                              34            0                      
                              36            0                      
                              38            0                      
                              40            0                      
                              42            0                      
                              44            0                      
                              46            0                      
                              48            0                      
                              50            0                      
                              52            0                      
                              54            0                      
                              56            0                      
                              58            0                      
                              60            0                      
                              62            0                      
                              64            0                      
                              66            0                      
                              68            0                      
                              70            0                      
                              72            0                      
                              74            0                      
                              76            0                      
                              78            0                      
                              80            0                      
                              82            0                      
                              84            0                      
                              86            0                      
                              88            0                      
                              90            0                      
                              92            0                      
                              94            0                      
                              96            0                      
                              98            0                      
system.cpu0.IQ:residence:InstPrefetch.max_value            0                      
system.cpu0.IQ:residence:InstPrefetch.end_dist

system.cpu0.ISSUE:(null)_delay.start_dist 
system.cpu0.ISSUE:(null)_delay.samples           5893                      
system.cpu0.ISSUE:(null)_delay.min_value            1                      
                               0         5360   9095.54%   9095.54%
                               2          347    588.83%   9684.37%
                               4          100    169.69%   9854.06%
                               6           16     27.15%   9881.22%
                               8           56     95.03%   9976.24%
                              10            4      6.79%   9983.03%
                              12            2      3.39%   9986.42%
                              14            1      1.70%   9988.12%
                              16            2      3.39%   9991.52%
                              18            5      8.48%  10000.00%
                              20            0      0.00%  10000.00%
                              22            0      0.00%  10000.00%
                              24            0      0.00%  10000.00%
                              26            0      0.00%  10000.00%
                              28            0      0.00%  10000.00%
                              30            0      0.00%  10000.00%
                              32            0      0.00%  10000.00%
                              34            0      0.00%  10000.00%
                              36            0      0.00%  10000.00%
                              38            0      0.00%  10000.00%
                              40            0      0.00%  10000.00%
                              42            0      0.00%  10000.00%
                              44            0      0.00%  10000.00%
                              46            0      0.00%  10000.00%
                              48            0      0.00%  10000.00%
                              50            0      0.00%  10000.00%
                              52            0      0.00%  10000.00%
                              54            0      0.00%  10000.00%
                              56            0      0.00%  10000.00%
                              58            0      0.00%  10000.00%
                              60            0      0.00%  10000.00%
                              62            0      0.00%  10000.00%
                              64            0      0.00%  10000.00%
                              66            0      0.00%  10000.00%
                              68            0      0.00%  10000.00%
                              70            0      0.00%  10000.00%
                              72            0      0.00%  10000.00%
                              74            0      0.00%  10000.00%
                              76            0      0.00%  10000.00%
                              78            0      0.00%  10000.00%
                              80            0      0.00%  10000.00%
                              82            0      0.00%  10000.00%
                              84            0      0.00%  10000.00%
                              86            0      0.00%  10000.00%
                              88            0      0.00%  10000.00%
                              90            0      0.00%  10000.00%
                              92            0      0.00%  10000.00%
                              94            0      0.00%  10000.00%
                              96            0      0.00%  10000.00%
                              98            0      0.00%  10000.00%
system.cpu0.ISSUE:(null)_delay.max_value           19                      
system.cpu0.ISSUE:(null)_delay.end_dist

system.cpu0.ISSUE:IntAlu_delay.start_dist 
system.cpu0.ISSUE:IntAlu_delay.samples       84033434                      
system.cpu0.ISSUE:IntAlu_delay.min_value            0                      
                               0     76648354   9121.17%   9121.17%
                               2      3384083    402.71%   9523.88%
                               4      1179730    140.39%   9664.27%
                               6       538609     64.09%   9728.36%
                               8       303263     36.09%   9764.45%
                              10       208085     24.76%   9789.21%
                              12       297345     35.38%   9824.60%
                              14       671306     79.89%   9904.48%
                              16       462794     55.07%   9959.56%
                              18       176172     20.96%   9980.52%
                              20        91796     10.92%   9991.44%
                              22        68726      8.18%   9999.62%
                              24         3171      0.38%  10000.00%
                              26            0      0.00%  10000.00%
                              28            0      0.00%  10000.00%
                              30            0      0.00%  10000.00%
                              32            0      0.00%  10000.00%
                              34            0      0.00%  10000.00%
                              36            0      0.00%  10000.00%
                              38            0      0.00%  10000.00%
                              40            0      0.00%  10000.00%
                              42            0      0.00%  10000.00%
                              44            0      0.00%  10000.00%
                              46            0      0.00%  10000.00%
                              48            0      0.00%  10000.00%
                              50            0      0.00%  10000.00%
                              52            0      0.00%  10000.00%
                              54            0      0.00%  10000.00%
                              56            0      0.00%  10000.00%
                              58            0      0.00%  10000.00%
                              60            0      0.00%  10000.00%
                              62            0      0.00%  10000.00%
                              64            0      0.00%  10000.00%
                              66            0      0.00%  10000.00%
                              68            0      0.00%  10000.00%
                              70            0      0.00%  10000.00%
                              72            0      0.00%  10000.00%
                              74            0      0.00%  10000.00%
                              76            0      0.00%  10000.00%
                              78            0      0.00%  10000.00%
                              80            0      0.00%  10000.00%
                              82            0      0.00%  10000.00%
                              84            0      0.00%  10000.00%
                              86            0      0.00%  10000.00%
                              88            0      0.00%  10000.00%
                              90            0      0.00%  10000.00%
                              92            0      0.00%  10000.00%
                              94            0      0.00%  10000.00%
                              96            0      0.00%  10000.00%
                              98            0      0.00%  10000.00%
system.cpu0.ISSUE:IntAlu_delay.max_value           24                      
system.cpu0.ISSUE:IntAlu_delay.end_dist

system.cpu0.ISSUE:IntMult_delay.start_dist
system.cpu0.ISSUE:IntMult_delay.samples        159767                      
system.cpu0.ISSUE:IntMult_delay.min_value            0                      
                               0       126810   7937.18%   7937.18%
                               2        16941   1060.36%   8997.54%
                               4         7483    468.37%   9465.91%
                               6         2466    154.35%   9620.26%
                               8          404     25.29%   9645.55%
                              10          798     49.95%   9695.49%
                              12          606     37.93%   9733.42%
                              14         1018     63.72%   9797.14%
                              16          376     23.53%   9820.68%
                              18          762     47.69%   9868.37%
                              20         1044     65.35%   9933.72%
                              22          722     45.19%   9978.91%
                              24          337     21.09%  10000.00%
                              26            0      0.00%  10000.00%
                              28            0      0.00%  10000.00%
                              30            0      0.00%  10000.00%
                              32            0      0.00%  10000.00%
                              34            0      0.00%  10000.00%
                              36            0      0.00%  10000.00%
                              38            0      0.00%  10000.00%
                              40            0      0.00%  10000.00%
                              42            0      0.00%  10000.00%
                              44            0      0.00%  10000.00%
                              46            0      0.00%  10000.00%
                              48            0      0.00%  10000.00%
                              50            0      0.00%  10000.00%
                              52            0      0.00%  10000.00%
                              54            0      0.00%  10000.00%
                              56            0      0.00%  10000.00%
                              58            0      0.00%  10000.00%
                              60            0      0.00%  10000.00%
                              62            0      0.00%  10000.00%
                              64            0      0.00%  10000.00%
                              66            0      0.00%  10000.00%
                              68            0      0.00%  10000.00%
                              70            0      0.00%  10000.00%
                              72            0      0.00%  10000.00%
                              74            0      0.00%  10000.00%
                              76            0      0.00%  10000.00%
                              78            0      0.00%  10000.00%
                              80            0      0.00%  10000.00%
                              82            0      0.00%  10000.00%
                              84            0      0.00%  10000.00%
                              86            0      0.00%  10000.00%
                              88            0      0.00%  10000.00%
                              90            0      0.00%  10000.00%
                              92            0      0.00%  10000.00%
                              94            0      0.00%  10000.00%
                              96            0      0.00%  10000.00%
                              98            0      0.00%  10000.00%
system.cpu0.ISSUE:IntMult_delay.max_value           24                      
system.cpu0.ISSUE:IntMult_delay.end_dist

system.cpu0.ISSUE:IntDiv_delay.start_dist 
system.cpu0.ISSUE:IntDiv_delay.samples              0                      
system.cpu0.ISSUE:IntDiv_delay.min_value            0                      
                               0            0                      
                               2            0                      
                               4            0                      
                               6            0                      
                               8            0                      
                              10            0                      
                              12            0                      
                              14            0                      
                              16            0                      
                              18            0                      
                              20            0                      
                              22            0                      
                              24            0                      
                              26            0                      
                              28            0                      
                              30            0                      
                              32            0                      
                              34            0                      
                              36            0                      
                              38            0                      
                              40            0                      
                              42            0                      
                              44            0                      
                              46            0                      
                              48            0                      
                              50            0                      
                              52            0                      
                              54            0                      
                              56            0                      
                              58            0                      
                              60            0                      
                              62            0                      
                              64            0                      
                              66            0                      
                              68            0                      
                              70            0                      
                              72            0                      
                              74            0                      
                              76            0                      
                              78            0                      
                              80            0                      
                              82            0                      
                              84            0                      
                              86            0                      
                              88            0                      
                              90            0                      
                              92            0                      
                              94            0                      
                              96            0                      
                              98            0                      
system.cpu0.ISSUE:IntDiv_delay.max_value            0                      
system.cpu0.ISSUE:IntDiv_delay.end_dist

system.cpu0.ISSUE:FloatAdd_delay.start_dist
system.cpu0.ISSUE:FloatAdd_delay.samples         5000                      
system.cpu0.ISSUE:FloatAdd_delay.min_value            0                      
                               0         2617   5234.00%   5234.00%
                               2          230    460.00%   5694.00%
                               4            6     12.00%   5706.00%
                               6           74    148.00%   5854.00%
                               8          104    208.00%   6062.00%
                              10          270    540.00%   6602.00%
                              12          338    676.00%   7278.00%
                              14          996   1992.00%   9270.00%
                              16          365    730.00%  10000.00%
                              18            0      0.00%  10000.00%
                              20            0      0.00%  10000.00%
                              22            0      0.00%  10000.00%
                              24            0      0.00%  10000.00%
                              26            0      0.00%  10000.00%
                              28            0      0.00%  10000.00%
                              30            0      0.00%  10000.00%
                              32            0      0.00%  10000.00%
                              34            0      0.00%  10000.00%
                              36            0      0.00%  10000.00%
                              38            0      0.00%  10000.00%
                              40            0      0.00%  10000.00%
                              42            0      0.00%  10000.00%
                              44            0      0.00%  10000.00%
[...]
system.cpu1.kern.mode_good_user                  1175                      
system.cpu1.kern.mode_good_idle                     0                      
system.cpu1.kern.mode_good_interrupt                0                      
system.cpu1.kern.mode_switch_kernel             16042                      
system.cpu1.kern.mode_switch_user                1175                      
system.cpu1.kern.mode_switch_idle                   0                      
system.cpu1.kern.mode_switch_interrupt              0                      
system.cpu1.kern.mode_switch_good            0.136435                      
system.cpu1.kern.mode_switch_good_kernel     0.073183                      
system.cpu1.kern.mode_switch_good_user              1                      
system.cpu1.kern.mode_switch_good_idle   <err: div-0>                      
system.cpu1.kern.mode_switch_good_interrupt <err: div-0>                      
system.cpu1.kern.mode_ticks_kernel          727174698     98.79%     98.79%
system.cpu1.kern.mode_ticks_user              8917346      1.21%    100.00%
system.cpu1.kern.mode_ticks_idle                    0      0.00%    100.00%
system.cpu1.kern.mode_ticks_interrupt               0      0.00%    100.00%
system.cpu1.kern.swap_context                    3807                      
system.cpu1.kern.syscall                          263                      
system.cpu1.kern.syscall_fork                       3      1.14%      1.14%
system.cpu1.kern.syscall_read                      21      7.98%      9.13%
system.cpu1.kern.syscall_write                      5      1.90%     11.03%
system.cpu1.kern.syscall_close                     19      7.22%     18.25%
system.cpu1.kern.syscall_chmod                      1      0.38%     18.63%
system.cpu1.kern.syscall_obreak                    34     12.93%     31.56%
system.cpu1.kern.syscall_lseek                      7      2.66%     34.22%
system.cpu1.kern.syscall_getpid                     3      1.14%     35.36%
system.cpu1.kern.syscall_setuid                     2      0.76%     36.12%
system.cpu1.kern.syscall_getuid                     8      3.04%     39.16%
system.cpu1.kern.syscall_open                      43     16.35%     55.51%
system.cpu1.kern.syscall_getgid                     8      3.04%     58.56%
system.cpu1.kern.syscall_sigprocmask                5      1.90%     60.46%
system.cpu1.kern.syscall_ioctl                      5      1.90%     62.36%
system.cpu1.kern.syscall_readlink                   2      0.76%     63.12%
system.cpu1.kern.syscall_execve                     2      0.76%     63.88%
system.cpu1.kern.syscall_pre_F64_stat              15      5.70%     69.58%
system.cpu1.kern.syscall_pre_F64_lstat              1      0.38%     69.96%
system.cpu1.kern.syscall_mmap                      35     13.31%     83.27%
system.cpu1.kern.syscall_munmap                     2      0.76%     84.03%
system.cpu1.kern.syscall_mprotect                   9      3.42%     87.45%
system.cpu1.kern.syscall_gethostname                1      0.38%     87.83%
system.cpu1.kern.syscall_dup2                       1      0.38%     88.21%
system.cpu1.kern.syscall_pre_F64_fstat             19      7.22%     95.44%
system.cpu1.kern.syscall_fcntl                      7      2.66%     98.10%
system.cpu1.kern.syscall_setgid                     2      0.76%     98.86%
system.cpu1.kern.syscall_getrlimit                  1      0.38%     99.24%
system.cpu1.kern.syscall_getsysinfo                 1      0.38%     99.62%
system.cpu1.kern.syscall_setsysinfo                 1      0.38%    100.00%
system.cpu1.numCycles                       735837576                      
system.cpu1inst_class_dist.start_dist
                   All ops ready            0      0.00%           
                One op not ready            0      0.00%           
           None rdy, mult chains            0      0.00%           
           None rdy, one chained            0      0.00%           
        None rdy, all self-timed            0      0.00%           
system.cpu1inst_class_dist.end_dist
system.htbus.addr_idle_cycles               735073078                      
system.htbus.addr_idle_fraction              0.998613                      
system.htbus.addr_queued                    31.874964                      
system.htbus.addr_queued_cycles               4362822                      
system.htbus.addr_requests                     136873                      
system.htbus.bus_blocked                            0                      
system.htbus.bus_blocked_cycles                     0                      
system.htbus.bus_blocked_fraction                   0                      
system.htbus.data_idle_cycles               734971675                      
system.htbus.data_idle_fraction              0.998476                      
system.htbus.data_queued                            1                      
system.htbus.data_queued_cycles                  9783                      
system.htbus.data_requests                       9783                      
system.htbus.null_grants                            0                      
system.kern.fnCalls                                 0                      
system.l2.avg_blocked_cycles_no_mshrs    <err: div-0>                      
system.l2.avg_blocked_cycles_no_targets  <err: div-0>                      
system.l2.avg_refs                           2.223364                      
system.l2.blocked_no_mshrs                          0                      
system.l2.blocked_no_targets                        0                      
system.l2.blocked_cycles_no_mshrs                   0                      
system.l2.blocked_cycles_no_targets                 0                      
system.l2.cache_copies                              0                      
system.l2.demand_accesses                     2813086                      
system.l2.demand_avg_miss_latency           67.399121                      
system.l2.demand_avg_mshr_miss_latency      37.461612                      
system.l2.demand_hits                         1771130                      
system.l2.demand_miss_latency                70226919                      
system.l2.demand_miss_rate                   0.370396                      
system.l2.demand_misses                       1041956                      
system.l2.demand_mshr_hits                          0                      
system.l2.demand_mshr_miss_latency           39033351                      
system.l2.demand_mshr_miss_rate              0.370396                      
system.l2.demand_mshr_misses                  1041956                      
system.l2.fast_writes                               0                      
system.l2.mshr_cap_events                           0                      
system.l2.no_allocate_misses                        0                      
system.l2.overall_accesses                    3450067                      
system.l2.overall_avg_miss_latency          67.384053                      
system.l2.overall_avg_mshr_miss_latency     37.461612                      
system.l2.overall_avg_mshr_uncacheable_latency   176.725951                      
system.l2.overall_hits                        2407878                      
system.l2.overall_miss_latency               70226919                      
system.l2.overall_miss_rate                  0.302078                      
system.l2.overall_misses                      1042189                      
system.l2.overall_mshr_hits                         0                      
system.l2.overall_mshr_miss_latency          39033351                      
system.l2.overall_mshr_miss_rate             0.302010                      
system.l2.overall_mshr_misses                 1041956                      
system.l2.overall_mshr_uncacheable_latency      5140251                      
system.l2.overall_mshr_uncacheable_misses        29086                      
system.l2.prefetcher.num_hwpf_already_in_cache            0                      
system.l2.prefetcher.num_hwpf_already_in_mshr            0                      
system.l2.prefetcher.num_hwpf_already_in_prefetcher            0                      
system.l2.prefetcher.num_hwpf_evicted               0                      
system.l2.prefetcher.num_hwpf_identified            0                      
system.l2.prefetcher.num_hwpf_issued                0                      
system.l2.prefetcher.num_hwpf_removed_MSHR_hit            0                      
system.l2.prefetcher.num_hwpf_span_page             0                      
system.l2.prefetcher.num_hwpf_squashed_from_miss            0                      
system.l2.readEx_accesses                      387500                      
system.l2.readEx_avg_miss_latency           64.182994                      
system.l2.readEx_avg_mshr_miss_latency      34.426820                      
system.l2.readEx_hits                          237910                      
system.l2.readEx_miss_latency                 9601134                      
system.l2.readEx_miss_rate                   0.386039                      
system.l2.readEx_misses                        149590                      
system.l2.readEx_mshr_miss_latency            5149908                      
system.l2.readEx_mshr_miss_rate              0.386039                      
system.l2.readEx_mshr_misses                   149590                      
system.l2.read_accesses                       2813086                      
system.l2.read_avg_miss_latency             67.399121                      
system.l2.read_avg_mshr_miss_latency        37.461612                      
system.l2.read_avg_mshr_uncacheable_latency   175.805973                      
system.l2.read_hits                           1771130                      
system.l2.read_miss_latency                  70226919                      
system.l2.read_miss_rate                     0.370396                      
system.l2.read_misses                         1041956                      
system.l2.read_mshr_miss_latency             39033351                      
system.l2.read_mshr_miss_rate                0.370396                      
system.l2.read_mshr_misses                    1041956                      
system.l2.read_mshr_uncacheable                 11050                      
system.l2.read_mshr_uncacheable_latency       1942656                      
system.l2.replacements                        1157200                      
system.l2.sampled_refs                        1189160                      
system.l2.soft_prefetch_mshr_full                   0                      
system.l2.tagsinuse                      32574.826661                      
system.l2.total_refs                          2643936                      
system.l2.warmup_cycle                        3581024                      
system.l2.write_avg_mshr_uncacheable_latency   177.289587                      
system.l2.write_mshr_uncacheable                18036                      
system.l2.write_mshr_uncacheable_latency      3197595                      
system.l2.writeback_accesses                   636981                      
system.l2.writeback_hits                       636748                      
system.l2.writeback_miss_rate                0.000366                      
system.l2.writeback_misses                        233                      
system.l2.writeback_mshr_miss_rate           0.000366                      
system.l2.writeback_mshr_misses                   233                      
system.l2.writebacks                           151231                      
system.l2bus.addr_idle_cycles               732062157                      
system.l2bus.addr_idle_fraction              0.994523                      
system.l2bus.addr_queued                     4.071299                      
system.l2bus.addr_queued_cycles              16389113                      
system.l2bus.addr_requests                    4025524                      
system.l2bus.bus_blocked                          335                      
system.l2bus.bus_blocked_cycles                129491                      
system.l2bus.bus_blocked_fraction            0.000176                      
system.l2bus.data_idle_cycles               732181814                      
system.l2bus.data_idle_fraction              0.994686                      
system.l2bus.data_queued                     1.017761                      
system.l2bus.data_queued_cycles               3314741                      
system.l2bus.data_requests                    3256895                      
system.l2bus.null_grants                        25625                      
system.membus.addr_idle_cycles              734589614                      
system.membus.addr_idle_fraction             0.997957                      
system.membus.addr_queued                   27.928779                      
system.membus.addr_queued_cycles             41892079                      
system.membus.addr_requests                   1499961                      
system.membus.bus_blocked                           0                      
system.membus.bus_blocked_cycles                    0                      
system.membus.bus_blocked_fraction                  0                      
system.membus.data_idle_cycles              730468357                      
system.membus.data_idle_fraction             0.992358                      
system.membus.data_queued                    2.214482                      
system.membus.data_queued_cycles              2663634                      
system.membus.data_requests                   1202825                      
system.membus.null_grants                           0                      
system.pcibus.addr_idle_cycles              734883642                      
system.pcibus.addr_idle_fraction             0.998356                      
system.pcibus.addr_queued                  336.303142                      
system.pcibus.addr_queued_cycles             46030820                      
system.pcibus.addr_requests                    136873                      
system.pcibus.bus_blocked                        3426                      
system.pcibus.bus_blocked_cycles                99351                      
system.pcibus.bus_blocked_fraction           0.000135                      
system.pcibus.data_idle_cycles              734293124                      
system.pcibus.data_idle_fraction             0.997554                      
system.pcibus.data_queued                    2.128999                      
system.pcibus.data_queued_cycles                20828                      
system.pcibus.data_requests                      9783                      
system.pcibus.null_grants                           0                      
system.ram.accesses                           1398039                      
system.ram.bytes_requested                          0                      
system.ram.bytes_sent                               0                      
system.ram.compressed_responses                     0                      
system.tsunami.etherdev0.coalescedRxDesc <err: div-0>                      
system.tsunami.etherdev0.coalescedRxIdle <err: div-0>                      
system.tsunami.etherdev0.coalescedRxOk   <err: div-0>                      
system.tsunami.etherdev0.coalescedRxOrn  <err: div-0>                      
system.tsunami.etherdev0.coalescedSwi    <err: div-0>                      
system.tsunami.etherdev0.coalescedTotal  <err: div-0>                      
system.tsunami.etherdev0.coalescedTxDesc <err: div-0>                      
system.tsunami.etherdev0.coalescedTxIdle <err: div-0>                      
system.tsunami.etherdev0.coalescedTxOk   <err: div-0>                      
system.tsunami.etherdev0.descDMAReads               0                      
system.tsunami.etherdev0.descDMAWrites              0                      
system.tsunami.etherdev0.descDmaReadBytes            0                      
system.tsunami.etherdev0.descDmaWriteBytes            0                      
system.tsunami.etherdev0.dma.avg_large_transaction_latency <err: div-0>                      
system.tsunami.etherdev0.dma.avg_small_transaction_latency <err: div-0>                      
system.tsunami.etherdev0.dma.avg_transaction_latency <err: div-0>                      
system.tsunami.etherdev0.dma.bytes_transfered            0                      
system.tsunami.etherdev0.dma.large_transaction_latency            0                      
system.tsunami.etherdev0.dma.large_transactions            0                      
system.tsunami.etherdev0.dma.packets_sent            0                      
system.tsunami.etherdev0.dma.requests               0                      
system.tsunami.etherdev0.dma.round_trip_latency <err: div-0>                      
system.tsunami.etherdev0.dma.small_transaction_latency            0                      
system.tsunami.etherdev0.dma.small_transactions            0                      
system.tsunami.etherdev0.dma.total_cycle_latency            0                      
system.tsunami.etherdev0.dma.transaction_latency            0                      
system.tsunami.etherdev0.droppedPackets             0                      
system.tsunami.etherdev0.postedInterrupts            0                      
system.tsunami.etherdev0.postedRxDesc               0                      
system.tsunami.etherdev0.postedRxIdle               0                      
system.tsunami.etherdev0.postedRxOk                 0                      
system.tsunami.etherdev0.postedRxOrn                0                      
system.tsunami.etherdev0.postedSwi                  0                      
system.tsunami.etherdev0.postedTxDesc               0                      
system.tsunami.etherdev0.postedTxIdle               0                      
system.tsunami.etherdev0.postedTxOk                 0                      
system.tsunami.etherdev0.totalRxDesc                0                      
system.tsunami.etherdev0.totalRxIdle                0                      
system.tsunami.etherdev0.totalRxOk                  0                      
system.tsunami.etherdev0.totalRxOrn                 0                      
system.tsunami.etherdev0.totalSwi                   0                      
system.tsunami.etherdev0.totalTxDesc                0                      
system.tsunami.etherdev0.totalTxIdle                0                      
system.tsunami.etherdev0.totalTxOk                  0                      
system.tsunami.ide.dma.avg_large_transaction_latency  1891.860421                      
system.tsunami.ide.dma.avg_small_transaction_latency   192.643192                      
system.tsunami.ide.dma.avg_transaction_latency  1400.103261                      
system.tsunami.ide.dma.bytes_transfered       3521168                      
system.tsunami.ide.dma.large_transaction_latency       989443                      
system.tsunami.ide.dma.large_transactions          523                      
system.tsunami.ide.dma.packets_sent             55029                      
system.tsunami.ide.dma.requests                   736                      
system.tsunami.ide.dma.round_trip_latency  1066.861073                      
system.tsunami.ide.dma.small_transaction_latency        41033                      
system.tsunami.ide.dma.small_transactions          213                      
system.tsunami.ide.dma.total_cycle_latency     58708298                      
system.tsunami.ide.dma.transaction_latency      1030476                      

---------- End Simulation Statistics   ----------
