
---------- Begin Simulation Statistics ----------
host_inst_rate                                  30088                      
host_mem_usage                                 195016                      
host_seconds                                  4493.56                      
host_tick_rate                                 177297                      
sim_freq                                    350000000                      
sim_insts                                   135200498                      
sim_seconds                                  2.276276                      
sim_ticks                                   796696629                      
system.cpu0.COM:IPB                          5.087189                      
system.cpu0.COM:IPC                          0.169701                      
system.cpu0.COM:branches                     26576663                      
system.cpu0.COM:bw_lim_avg               <err: div-0>                      
system.cpu0.COM:bw_lim_events                       0                      
system.cpu0.COM:bw_lim_rate                    0.0000                      
system.cpu0.COM:bw_lim_stdev_0_mean      <err: div-0>                      
system.cpu0.COM:bw_lim_stdev_0_stdev     <err: div-0>                      
**Ignore: system.cpu0.COM:bw_lim_stdev_0_TOT       0.0000                      
system.cpu0.COM:bw_limited                          0                      
system.cpu0.COM:committed_per_cycle.start_dist
system.cpu0.COM:committed_per_cycle.samples     45558383                      
system.cpu0.COM:committed_per_cycle.min_value            0                      
                               0       401463     88.12%           
                               1     10054552   2206.96%           
                               2      5871801   1288.85%           
                               3      3307074    725.90%           
                               4     25923493   5690.17%           
system.cpu0.COM:committed_per_cycle.max_value            4                      
system.cpu0.COM:committed_per_cycle.end_dist

system.cpu0.COM:count                       135200498                      
system.cpu0.COM:loads                        17294926                      
system.cpu0.COM:membars                        307088                      
system.cpu0.COM:refs                         28259254                      
system.cpu0.COM:stores                       10964328                      
system.cpu0.COM:swp_count                      212850                      
system.cpu0.DDQ:count                      9167495703                      
system.cpu0.DDQ:rate                               12                      
system.cpu0.DIS:chain_creation.start_dist
     Inst has no outstanding IDEPS            0      0.00%           
      IDEP chain reached max depth            0      0.00%           
                    Inst is a load            0      0.00%           
  Chain has multiple chained IDEPS            0      0.00%           
system.cpu0.DIS:chain_creation.end_dist
system.cpu0.DIS:chain_head_frac                     0                      
system.cpu0.DIS:chain_heads                         0                      
system.cpu0.DIS:chains_insuf                        0                      
system.cpu0.DIS:chains_insuf_rate                   0                      
system.cpu0.DIS:count                       156837380                      
system.cpu0.DIS:insufficient_chains                 0                      
system.cpu0.DIS:mod_n_stall_avg_free     <err: div-0>                      
system.cpu0.DIS:mod_n_stall_frac                    0                      
system.cpu0.DIS:mod_n_stall_free                    0                      
system.cpu0.DIS:mod_n_stalls                        0                      
system.cpu0.DIS:one_rdy_insts                       0                      
system.cpu0.DIS:one_rdy_ratio            <err: div-0>                      
system.cpu0.DIS:op_count                    190880017                      
system.cpu0.DIS:op_rate                      0.239589                      
system.cpu0.DIS:rate                         0.196860                      
system.cpu0.DIS:second_choice_clust                 0                      
system.cpu0.DIS:second_choice_stall                 0                      
system.cpu0.DIS:serialize_stall_cycles        9563023                      
system.cpu0.DIS:serializing_insts              294338                      
system.cpu0.DIS:two_input_insts                     0                      
system.cpu0.DIS:two_input_ratio                     0                      
system.cpu0.FETCH:branch_count               43023850                      
system.cpu0.FETCH:branch_rate                0.054003                      
system.cpu0.FETCH:chance_pct                        1                      
system.cpu0.FETCH:chances                    62454540                      
system.cpu0.FETCH:choice                     62454540                      
system.cpu0.FETCH:count                     219463238                      
system.cpu0.FETCH:decisions                  62454540                      
system.cpu0.FETCH:idle_cycles               734242090                      
system.cpu0.FETCH:idle_icache_blocked_cycles            0                      
system.cpu0.FETCH:idle_rate                     92.16                      
system.cpu0.FETCH:prio_changes                      0                      
system.cpu0.FETCH:rate                       0.275467                      
system.cpu0.FETCH:rate_dist.start_dist    
system.cpu0.FETCH:rate_dist.samples          62454540                      
system.cpu0.FETCH:rate_dist.min_value               0                      
                               0       192551     30.83%           
                               1      5513754    882.84%           
                               2      2896107    463.71%           
                               3      7251242   1161.04%           
                               4     46600886   7461.57%           
system.cpu0.FETCH:rate_dist.max_value               4                      
system.cpu0.FETCH:rate_dist.end_dist

system.cpu0.FETCH:rate_dist_0.start_dist  
system.cpu0.FETCH:rate_dist_0.samples        62454540                      
system.cpu0.FETCH:rate_dist_0.min_value             0                      
                               0       192551     30.83%           
                               1      5513754    882.84%           
                               2      2896107    463.71%           
                               3      7251242   1161.04%           
                               4     46600886   7461.57%           
system.cpu0.FETCH:rate_dist_0.max_value             4                      
system.cpu0.FETCH:rate_dist_0.end_dist

system.cpu0.IFQ:count                      3846661007                      
system.cpu0.IFQ:full_count                  110407170                      
system.cpu0.IFQ:full_rate                   13.858119                      
system.cpu0.IFQ:latency                     24.526430                      
system.cpu0.IFQ:occupancy                    4.828263                      
system.cpu0.IFQ:qfull_iq_occ               5409534691                      
system.cpu0.IFQ:qfull_iq_occ_dist_0.start_dist
system.cpu0.IFQ:qfull_iq_occ_dist_0.samples     91956271                      
system.cpu0.IFQ:qfull_iq_occ_dist_0.min_value            0                      
                               0      5857668    637.01%           
                              10       775381     84.32%           
                              20       653117     71.02%           
                              30       745006     81.02%           
                              40       936007    101.79%           
                              50       873980     95.04%           
                              60     82115112   8929.80%           
system.cpu0.IFQ:qfull_iq_occ_dist_0.max_value           64                      
system.cpu0.IFQ:qfull_iq_occ_dist_0.end_dist

system.cpu0.IFQ:qfull_rob_occ              8399548155                      
system.cpu0.IFQ:qfull_rob_occ_dist_0.start_dist
system.cpu0.IFQ:qfull_rob_occ_dist_0.samples     91956271                      
system.cpu0.IFQ:qfull_rob_occ_dist_0.min_value            1                      
                               0      1295353    140.87%           
                              10      1761542    191.56%           
                              20      1206393    131.19%           
                              30       470071     51.12%           
                              40       290102     31.55%           
                              50       202617     22.03%           
                              60      5719161    621.94%           
                              70      1430622    155.58%           
                              80       655794     71.32%           
                              90     74410700   8091.97%           
                             100       956227    103.99%           
                             110      1340143    145.74%           
                             120      2217546    241.15%           
                             130            0      0.00%           
system.cpu0.IFQ:qfull_rob_occ_dist_0.max_value          128                      
system.cpu0.IFQ:qfull_rob_occ_dist_0.end_dist

system.cpu0.IQ:cap_events                           0                      
system.cpu0.IQ:cap_inst                             0                      
system.cpu0.IQ:residence:(null).start_dist
system.cpu0.IQ:residence:(null).samples          9703                      
system.cpu0.IQ:residence:(null).min_value            1                      
                               0         8735   9002.37%   9002.37%
                               2          643    662.68%   9665.05%
                               4          158    162.84%   9827.89%
                               6           28     28.86%   9856.75%
                               8          123    126.76%   9983.51%
                              10            4      4.12%   9987.63%
                              12            2      2.06%   9989.69%
                              14            3      3.09%   9992.79%
                              16            2      2.06%   9994.85%
                              18            3      3.09%   9997.94%
                              20            2      2.06%  10000.00%
                              22            0      0.00%  10000.00%
                              24            0      0.00%  10000.00%
                              26            0      0.00%  10000.00%
                              28            0      0.00%  10000.00%
                              30            0      0.00%  10000.00%
                              32            0      0.00%  10000.00%
                              34            0      0.00%  10000.00%
                              36            0      0.00%  10000.00%
                              38            0      0.00%  10000.00%
                              40            0      0.00%  10000.00%
                              42            0      0.00%  10000.00%
                              44            0      0.00%  10000.00%
                              46            0      0.00%  10000.00%
                              48            0      0.00%  10000.00%
                              50            0      0.00%  10000.00%
                              52            0      0.00%  10000.00%
                              54            0      0.00%  10000.00%
                              56            0      0.00%  10000.00%
                              58            0      0.00%  10000.00%
                              60            0      0.00%  10000.00%
                              62            0      0.00%  10000.00%
                              64            0      0.00%  10000.00%
                              66            0      0.00%  10000.00%
                              68            0      0.00%  10000.00%
                              70            0      0.00%  10000.00%
                              72            0      0.00%  10000.00%
                              74            0      0.00%  10000.00%
                              76            0      0.00%  10000.00%
                              78            0      0.00%  10000.00%
                              80            0      0.00%  10000.00%
                              82            0      0.00%  10000.00%
                              84            0      0.00%  10000.00%
                              86            0      0.00%  10000.00%
                              88            0      0.00%  10000.00%
                              90            0      0.00%  10000.00%
                              92            0      0.00%  10000.00%
                              94            0      0.00%  10000.00%
                              96            0      0.00%  10000.00%
                              98            0      0.00%  10000.00%
system.cpu0.IQ:residence:(null).max_value           21                      
system.cpu0.IQ:residence:(null).end_dist

system.cpu0.IQ:residence:IntAlu.start_dist
system.cpu0.IQ:residence:IntAlu.samples     112212306                      
system.cpu0.IQ:residence:IntAlu.min_value            1                      
                               0     30082064   2680.82%   2680.82%
                               2     29903448   2664.90%   5345.72%
                               4      6517033    580.78%   5926.49%
                               6      5183683    461.95%   6388.45%
                               8      4136537    368.63%   6757.08%
                              10      2762371    246.17%   7003.25%
                              12      2375683    211.71%   7214.97%
                              14      3034328    270.41%   7485.38%
                              16      4056642    361.51%   7846.89%
                              18      2650957    236.24%   8083.14%
                              20      2657829    236.86%   8319.99%
                              22      3206983    285.80%   8605.79%
                              24      1900727    169.39%   8775.18%
                              26       984766     87.76%   8862.94%
                              28       615039     54.81%   8917.75%
                              30       623218     55.54%   8973.29%
                              32       558882     49.81%   9023.09%
                              34       460514     41.04%   9064.13%
                              36       551353     49.13%   9113.27%
                              38       494677     44.08%   9157.35%
                              40       435672     38.83%   9196.18%
                              42       334567     29.82%   9225.99%
                              44       348040     31.02%   9257.01%
                              46       303132     27.01%   9284.02%
                              48       248848     22.18%   9306.20%
                              50       243444     21.69%   9327.89%
                              52       244683     21.81%   9349.70%
                              54       249360     22.22%   9371.92%
                              56       106732      9.51%   9381.43%
                              58       130469     11.63%   9393.06%
                              60       111967      9.98%   9403.04%
                              62       206962     18.44%   9421.48%
                              64       116016     10.34%   9431.82%
                              66       100276      8.94%   9440.76%
                              68       113706     10.13%   9450.89%
                              70        74235      6.62%   9457.50%
                              72        79410      7.08%   9464.58%
                              74        64206      5.72%   9470.30%
                              76        85412      7.61%   9477.92%
                              78       102810      9.16%   9487.08%
                              80        52708      4.70%   9491.77%
                              82        51683      4.61%   9496.38%
                              84        50096      4.46%   9500.84%
                              86        55346      4.93%   9505.78%
                              88        66171      5.90%   9511.67%
                              90        73852      6.58%   9518.26%
                              92        49076      4.37%   9522.63%
                              94        38718      3.45%   9526.08%
                              96        36264      3.23%   9529.31%
                              98        69748      6.22%   9535.53%
system.cpu0.IQ:residence:IntAlu.overflows      5211963                      
system.cpu0.IQ:residence:IntAlu.max_value        20147                      
system.cpu0.IQ:residence:IntAlu.end_dist

system.cpu0.IQ:residence:IntMult.start_dist
system.cpu0.IQ:residence:IntMult.samples       385991                      
system.cpu0.IQ:residence:IntMult.min_value            1                      
                               0         7434    192.60%    192.60%
                               2         5357    138.79%    331.38%
                               4        11237    291.12%    622.50%
                               6         6961    180.34%    802.84%
                               8         8479    219.67%   1022.51%
                              10         7716    199.90%   1222.41%
                              12         6013    155.78%   1378.19%
                              14         9412    243.84%   1622.03%
                              16         9197    238.27%   1860.30%
                              18        19189    497.14%   2357.44%
                              20        91202   2362.80%   4720.24%
                              22       117658   3048.21%   7768.45%
                              24        45785   1186.17%   8954.61%
                              26         3888    100.73%   9055.34%
                              28          404     10.47%   9065.81%
                              30         3150     81.61%   9147.42%
                              32         3045     78.89%   9226.30%
                              34         2914     75.49%   9301.80%
                              36         3624     93.89%   9395.69%
                              38         2398     62.13%   9457.81%
                              40         9622    249.28%   9707.09%
                              42         1157     29.97%   9737.07%
                              44          243      6.30%   9743.36%
                              46          129      3.34%   9746.70%
                              48          470     12.18%   9758.88%
                              50          280      7.25%   9766.13%
                              52          255      6.61%   9772.74%
                              54          531     13.76%   9786.50%
                              56          560     14.51%   9801.01%
                              58           87      2.25%   9803.26%
                              60           25      0.65%   9803.91%
                              62           41      1.06%   9804.97%
                              64           33      0.85%   9805.82%
                              66           62      1.61%   9807.43%
                              68           85      2.20%   9809.63%
                              70          399     10.34%   9819.97%
                              72          314      8.13%   9828.10%
                              74          331      8.58%   9836.68%
                              76           82      2.12%   9838.80%
                              78          120      3.11%   9841.91%
                              80          137      3.55%   9845.46%
                              82          102      2.64%   9848.11%
                              84           49      1.27%   9849.37%
                              86           10      0.26%   9849.63%
                              88           50      1.30%   9850.93%
                              90           23      0.60%   9851.53%
                              92            9      0.23%   9851.76%
                              94           16      0.41%   9852.17%
                              96           11      0.28%   9852.46%
                              98            9      0.23%   9852.69%
system.cpu0.IQ:residence:IntMult.overflows         5686                      
system.cpu0.IQ:residence:IntMult.max_value          678                      
system.cpu0.IQ:residence:IntMult.end_dist

system.cpu0.IQ:residence:IntDiv.start_dist
system.cpu0.IQ:residence:IntDiv.samples             0                      
system.cpu0.IQ:residence:IntDiv.min_value            0                      
                               0            0                      
                               2            0                      
                               4            0                      
                               6            0                      
                               8            0                      
                              10            0                      
                              12            0                      
                              14            0                      
                              16            0                      
                              18            0                      
                              20            0                      
                              22            0                      
                              24            0                      
                              26            0                      
                              28            0                      
                              30            0                      
                              32            0                      
                              34            0                      
                              36            0                      
                              38            0                      
                              40            0                      
                              42            0                      
                              44            0                      
                              46            0                      
                              48            0                      
                              50            0                      
                              52            0                      
                              54            0                      
                              56            0                      
                              58            0                      
                              60            0                      
                              62            0                      
                              64            0                      
                              66            0                      
                              68            0                      
                              70            0                      
                              72            0                      
                              74            0                      
                              76            0                      
                              78            0                      
                              80            0                      
                              82            0                      
                              84            0                      
                              86            0                      
                              88            0                      
                              90            0                      
                              92            0                      
                              94            0                      
                              96            0                      
                              98            0                      
system.cpu0.IQ:residence:IntDiv.max_value            0                      
system.cpu0.IQ:residence:IntDiv.end_dist

system.cpu0.IQ:residence:FloatAdd.start_dist
system.cpu0.IQ:residence:FloatAdd.samples         9952                      
system.cpu0.IQ:residence:FloatAdd.min_value            1                      
                               0          137    137.66%    137.66%
                               2          205    205.99%    343.65%
                               4          162    162.78%    506.43%
                               6         2251   2261.86%   2768.29%
                               8           32     32.15%   2800.44%
                              10          659    662.18%   3462.62%
                              12          899    903.34%   4365.96%
                              14          373    374.80%   4740.76%
                              16         2424   2435.69%   7176.45%
                              18            2      2.01%   7178.46%
                              20            0      0.00%   7178.46%
                              22            0      0.00%   7178.46%
                              24            0      0.00%   7178.46%
                              26            3      3.01%   7181.47%
                              28            0      0.00%   7181.47%
                              30            1      1.00%   7182.48%
                              32            7      7.03%   7189.51%
                              34           41     41.20%   7230.71%
                              36         1900   1909.16%   9139.87%
                              38          851    855.10%   9994.98%
                              40            0      0.00%   9994.98%
                              42            0      0.00%   9994.98%
                              44            0      0.00%   9994.98%
                              46            0      0.00%   9994.98%
                              48            0      0.00%   9994.98%
                              50            0      0.00%   9994.98%
                              52            0      0.00%   9994.98%
                              54            0      0.00%   9994.98%
                              56            0      0.00%   9994.98%
                              58            0      0.00%   9994.98%
                              60            0      0.00%   9994.98%
                              62            0      0.00%   9994.98%
                              64            0      0.00%   9994.98%
                              66            0      0.00%   9994.98%
                              68            0      0.00%   9994.98%
                              70            0      0.00%   9994.98%
                              72            0      0.00%   9994.98%
                              74            0      0.00%   9994.98%
                              76            0      0.00%   9994.98%
                              78            0      0.00%   9994.98%
                              80            0      0.00%   9994.98%
                              82            0      0.00%   9994.98%
                              84            4      4.02%   9999.00%
                              86            0      0.00%   9999.00%
                              88            0      0.00%   9999.00%
                              90            0      0.00%   9999.00%
                              92            1      1.00%  10000.00%
                              94            0      0.00%  10000.00%
                              96            0      0.00%  10000.00%
                              98            0      0.00%  10000.00%
system.cpu0.IQ:residence:FloatAdd.max_value           92                      
system.cpu0.IQ:residence:FloatAdd.end_dist

system.cpu0.IQ:residence:FloatCmp.start_dist
system.cpu0.IQ:residence:FloatCmp.samples            0                      
system.cpu0.IQ:residence:FloatCmp.min_value            0                      
                               0            0                      
                               2            0                      
                               4            0                      
                               6            0                      
                               8            0                      
                              10            0                      
                              12            0                      
                              14            0                      
                              16            0                      
                              18            0                      
                              20            0                      
                              22            0                      
                              24            0                      
                              26            0                      
                              28            0                      
                              30            0                      
                              32            0                      
                              34            0                      
                              36            0                      
                              38            0                      
                              40            0                      
                              42            0                      
                              44            0                      
                              46            0                      
                              48            0                      
                              50            0                      
                              52            0                      
                              54            0                      
                              56            0                      
                              58            0                      
                              60            0                      
                              62            0                      
                              64            0                      
                              66            0                      
                              68            0                      
                              70            0                      
                              72            0                      
                              74            0                      
                              76            0                      
                              78            0                      
                              80            0                      
                              82            0                      
                              84            0                      
                              86            0                      
                              88            0                      
                              90            0                      
                              92            0                      
                              94            0                      
                              96            0                      
                              98            0                      
system.cpu0.IQ:residence:FloatCmp.max_value            0                      
system.cpu0.IQ:residence:FloatCmp.end_dist

system.cpu0.IQ:residence:FloatCvt.start_dist
system.cpu0.IQ:residence:FloatCvt.samples            0                      
system.cpu0.IQ:residence:FloatCvt.min_value            0                      
                               0            0                      
                               2            0                      
                               4            0                      
                               6            0                      
                               8            0                      
                              10            0                      
                              12            0                      
                              14            0                      
                              16            0                      
                              18            0                      
                              20            0                      
                              22            0                      
                              24            0                      
                              26            0                      
                              28            0                      
                              30            0                      
                              32            0                      
                              34            0                      
                              36            0                      
                              38            0                      
                              40            0                      
                              42            0                      
                              44            0                      
                              46            0                      
                              48            0                      
                              50            0                      
                              52            0                      
                              54            0                      
                              56            0                      
                              58            0                      
                              60            0                      
                              62            0                      
                              64            0                      
                              66            0                      
                              68            0                      
                              70            0                      
                              72            0                      
                              74            0                      
                              76            0                      
                              78            0                      
                              80            0                      
                              82            0                      
                              84            0                      
                              86            0                      
                              88            0                      
                              90            0                      
                              92            0                      
                              94            0                      
                              96            0                      
                              98            0                      
system.cpu0.IQ:residence:FloatCvt.max_value            0                      
system.cpu0.IQ:residence:FloatCvt.end_dist

system.cpu0.IQ:residence:FloatMult.start_dist
system.cpu0.IQ:residence:FloatMult.samples            2                      
system.cpu0.IQ:residence:FloatMult.min_value            5                      
                               0            0      0.00%      0.00%
                               2            0      0.00%      0.00%
                               4            1   5000.00%   5000.00%
                               6            0      0.00%   5000.00%
                               8            0      0.00%   5000.00%
                              10            0      0.00%   5000.00%
                              12            0      0.00%   5000.00%
                              14            0      0.00%   5000.00%
                              16            0      0.00%   5000.00%
                              18            0      0.00%   5000.00%
                              20            0      0.00%   5000.00%
                              22            0      0.00%   5000.00%
                              24            0      0.00%   5000.00%
                              26            0      0.00%   5000.00%
                              28            0      0.00%   5000.00%
                              30            0      0.00%   5000.00%
                              32            0      0.00%   5000.00%
                              34            0      0.00%   5000.00%
                              36            0      0.00%   5000.00%
                              38            0      0.00%   5000.00%
                              40            0      0.00%   5000.00%
                              42            0      0.00%   5000.00%
                              44            0      0.00%   5000.00%
                              46            0      0.00%   5000.00%
                              48            0      0.00%   5000.00%
                              50            0      0.00%   5000.00%
                              52            0      0.00%   5000.00%
                              54            0      0.00%   5000.00%
                              56            0      0.00%   5000.00%
                              58            0      0.00%   5000.00%
                              60            0      0.00%   5000.00%
                              62            0      0.00%   5000.00%
                              64            0      0.00%   5000.00%
                              66            0      0.00%   5000.00%
                              68            1   5000.00%  10000.00%
                              70            0      0.00%  10000.00%
                              72            0      0.00%  10000.00%
                              74            0      0.00%  10000.00%
                              76            0      0.00%  10000.00%
                              78            0      0.00%  10000.00%
                              80            0      0.00%  10000.00%
                              82            0      0.00%  10000.00%
                              84            0      0.00%  10000.00%
                              86            0      0.00%  10000.00%
                              88            0      0.00%  10000.00%
                              90            0      0.00%  10000.00%
                              92            0      0.00%  10000.00%
                              94            0      0.00%  10000.00%
                              96            0      0.00%  10000.00%
                              98            0      0.00%  10000.00%
system.cpu0.IQ:residence:FloatMult.max_value           69                      
system.cpu0.IQ:residence:FloatMult.end_dist

system.cpu0.IQ:residence:FloatDiv.start_dist
system.cpu0.IQ:residence:FloatDiv.samples           60                      
system.cpu0.IQ:residence:FloatDiv.min_value            6                      
                               0            0      0.00%      0.00%
                               2            0      0.00%      0.00%
                               4            0      0.00%      0.00%
                               6           59   9833.33%   9833.33%
                               8            0      0.00%   9833.33%
                              10            0      0.00%   9833.33%
                              12            0      0.00%   9833.33%
                              14            0      0.00%   9833.33%
                              16            0      0.00%   9833.33%
                              18            0      0.00%   9833.33%
                              20            0      0.00%   9833.33%
                              22            0      0.00%   9833.33%
                              24            0      0.00%   9833.33%
                              26            0      0.00%   9833.33%
                              28            1    166.67%  10000.00%
                              30            0      0.00%  10000.00%
                              32            0      0.00%  10000.00%
                              34            0      0.00%  10000.00%
                              36            0      0.00%  10000.00%
                              38            0      0.00%  10000.00%
                              40            0      0.00%  10000.00%
                              42            0      0.00%  10000.00%
                              44            0      0.00%  10000.00%
                              46            0      0.00%  10000.00%
                              48            0      0.00%  10000.00%
                              50            0      0.00%  10000.00%
                              52            0      0.00%  10000.00%
                              54            0      0.00%  10000.00%
                              56            0      0.00%  10000.00%
                              58            0      0.00%  10000.00%
                              60            0      0.00%  10000.00%
                              62            0      0.00%  10000.00%
                              64            0      0.00%  10000.00%
                              66            0      0.00%  10000.00%
                              68            0      0.00%  10000.00%
                              70            0      0.00%  10000.00%
                              72            0      0.00%  10000.00%
                              74            0      0.00%  10000.00%
                              76            0      0.00%  10000.00%
                              78            0      0.00%  10000.00%
                              80            0      0.00%  10000.00%
                              82            0      0.00%  10000.00%
                              84            0      0.00%  10000.00%
                              86            0      0.00%  10000.00%
                              88            0      0.00%  10000.00%
                              90            0      0.00%  10000.00%
                              92            0      0.00%  10000.00%
                              94            0      0.00%  10000.00%
                              96            0      0.00%  10000.00%
                              98            0      0.00%  10000.00%
system.cpu0.IQ:residence:FloatDiv.max_value           28                      
system.cpu0.IQ:residence:FloatDiv.end_dist

system.cpu0.IQ:residence:FloatSqrt.start_dist
system.cpu0.IQ:residence:FloatSqrt.samples            0                      
system.cpu0.IQ:residence:FloatSqrt.min_value            0                      
                               0            0                      
                               2            0                      
                               4            0                      
                               6            0                      
                               8            0                      
                              10            0                      
                              12            0                      
                              14            0                      
                              16            0                      
                              18            0                      
                              20            0                      
                              22            0                      
                              24            0                      
                              26            0                      
                              28            0                      
                              30            0                      
                              32            0                      
                              34            0                      
                              36            0                      
                              38            0                      
                              40            0                      
                              42            0                      
                              44            0                      
                              46            0                      
                              48            0                      
                              50            0                      
                              52            0                      
                              54            0                      
                              56            0                      
                              58            0                      
                              60            0                      
                              62            0                      
                              64            0                      
                              66            0                      
                              68            0                      
                              70            0                      
                              72            0                      
                              74            0                      
                              76            0                      
                              78            0                      
                              80            0                      
                              82            0                      
                              84            0                      
                              86            0                      
                              88            0                      
                              90            0                      
                              92            0                      
                              94            0                      
                              96            0                      
                              98            0                      
system.cpu0.IQ:residence:FloatSqrt.max_value            0                      
system.cpu0.IQ:residence:FloatSqrt.end_dist

system.cpu0.IQ:residence:MemRead.start_dist
system.cpu0.IQ:residence:MemRead.samples     38386370                      
system.cpu0.IQ:residence:MemRead.min_value            1                      
                               0      4074734   1061.51%   1061.51%
                               2      6390874   1664.88%   2726.39%
                               4      3226769    840.60%   3566.99%
                               6      2627080    684.38%   4251.37%
                               8      1933645    503.73%   4755.10%
                              10      1594660    415.42%   5170.52%
                              12      1196085    311.59%   5482.11%
                              14      1079414    281.20%   5763.31%
                              16      1172651    305.49%   6068.80%
                              18      1711417    445.84%   6514.64%
                              20      2368021    616.89%   7131.53%
                              22      2953549    769.43%   7900.96%
                              24       958377    249.67%   8150.62%
                              26       244227     63.62%   8214.24%
                              28       207502     54.06%   8268.30%
                              30       159241     41.48%   8309.78%
                              32       143582     37.40%   8347.19%
                              34       212127     55.26%   8402.45%
                              36       247101     64.37%   8466.82%
                              38       245069     63.84%   8530.66%
                              40       174412     45.44%   8576.10%
                              42       187632     48.88%   8624.98%
                              44       135624     35.33%   8660.31%
                              46       175806     45.80%   8706.11%
                              48        81468     21.22%   8727.33%
                              50       120580     31.41%   8758.75%
                              52        76686     19.98%   8778.72%
                              54        91673     23.88%   8802.61%
                              56        40304     10.50%   8813.10%
                              58        48383     12.60%   8825.71%
                              60        73401     19.12%   8844.83%
                              62        69052     17.99%   8862.82%
                              64       121653     31.69%   8894.51%
                              66        55834     14.55%   8909.06%
                              68        46505     12.11%   8921.17%
                              70        27313      7.12%   8928.29%
                              72        39683     10.34%   8938.62%
                              74        31696      8.26%   8946.88%
                              76        28377      7.39%   8954.27%
                              78        67274     17.53%   8971.80%
                              80        38694     10.08%   8981.88%
                              82        26813      6.99%   8988.86%
                              84        37590      9.79%   8998.66%
                              86        51190     13.34%   9011.99%
                              88        19561      5.10%   9017.09%
                              90        25398      6.62%   9023.70%
                              92        24319      6.34%   9030.04%
                              94        26833      6.99%   9037.03%
                              96        21441      5.59%   9042.62%
                              98         9050      2.36%   9044.97%
system.cpu0.IQ:residence:MemRead.overflows      3666000                      
system.cpu0.IQ:residence:MemRead.max_value        20143                      
system.cpu0.IQ:residence:MemRead.end_dist

system.cpu0.IQ:residence:MemWrite.start_dist
system.cpu0.IQ:residence:MemWrite.samples     23067956                      
system.cpu0.IQ:residence:MemWrite.min_value            1                      
                               0      2101427    910.97%    910.97%
                               2      4151627   1799.74%   2710.71%
                               4      2427641   1052.39%   3763.10%
                               6      1984444    860.26%   4623.36%
                               8      1515436    656.94%   5280.30%
                              10       936787    406.10%   5686.40%
                              12       731349    317.04%   6003.44%
                              14       661080    286.58%   6290.02%
                              16       738949    320.34%   6610.36%
                              18       968510    419.85%   7030.21%
                              20      1268145    549.74%   7579.95%
                              22      1775985    769.89%   8349.84%
                              24       957520    415.09%   8764.93%
                              26       236736    102.63%   8867.55%
                              28       192556     83.47%   8951.03%
                              30       132581     57.47%   9008.50%
                              32       184350     79.92%   9088.42%
                              34       184026     79.78%   9168.19%
                              36       215782     93.54%   9261.74%
                              38       165959     71.94%   9333.68%
                              40       159081     68.96%   9402.64%
                              42       115785     50.19%   9452.83%
                              44       107649     46.67%   9499.50%
                              46        70858     30.72%   9530.22%
                              48        55343     23.99%   9554.21%
                              50       153023     66.34%   9620.54%
                              52        66237     28.71%   9649.26%
                              54        34066     14.77%   9664.03%
                              56        31506     13.66%   9677.68%
                              58        19959      8.65%   9686.34%
                              60        44852     19.44%   9705.78%
                              62        69662     30.20%   9735.98%
                              64       123723     53.63%   9789.61%
                              66        18857      8.17%   9797.79%
                              68        15438      6.69%   9804.48%
                              70        19077      8.27%   9812.75%
                              72        24409     10.58%   9823.33%
                              74        19406      8.41%   9831.74%
                              76        33373     14.47%   9846.21%
                              78        41440     17.96%   9864.17%
                              80        33311     14.44%   9878.61%
                              82        19028      8.25%   9886.86%
                              84        11554      5.01%   9891.87%
                              86         8928      3.87%   9895.74%
                              88        13911      6.03%   9901.77%
                              90        13630      5.91%   9907.68%
                              92        12264      5.32%   9913.00%
                              94         7006      3.04%   9916.04%
                              96         4605      2.00%   9918.03%
                              98         8574      3.72%   9921.75%
system.cpu0.IQ:residence:MemWrite.overflows       180511                      
system.cpu0.IQ:residence:MemWrite.max_value        20148                      
system.cpu0.IQ:residence:MemWrite.end_dist

system.cpu0.IQ:residence:IprAccess.start_dist
system.cpu0.IQ:residence:IprAccess.samples      1414306                      
system.cpu0.IQ:residence:IprAccess.min_value            1                      
                               0       294956   2085.52%   2085.52%
                               2       248515   1757.15%   3842.67%
                               4        79074    559.10%   4401.77%
                               6       270013   1909.16%   6310.93%
                               8       225946   1597.58%   7908.50%
                              10        63069    445.94%   8354.44%
                              12        45337    320.56%   8675.00%
                              14        37226    263.21%   8938.21%
                              16        34429    243.43%   9181.64%
                              18        18081    127.84%   9309.48%
                              20        17812    125.94%   9435.43%
                              22        18373    129.91%   9565.33%
                              24        11657     82.42%   9647.76%
                              26         4044     28.59%   9676.35%
                              28         5317     37.59%   9713.94%
                              30         2716     19.20%   9733.15%
                              32         1920     13.58%   9746.72%
                              34         2289     16.18%   9762.91%
                              36         4220     29.84%   9792.75%
                              38         4447     31.44%   9824.19%
                              40         1024      7.24%   9831.43%
                              42          430      3.04%   9834.47%
                              44         1180      8.34%   9842.81%
                              46          841      5.95%   9848.76%
                              48         2030     14.35%   9863.11%
                              50         1262      8.92%   9872.04%
                              52          823      5.82%   9877.86%
                              54          755      5.34%   9883.19%
                              56          666      4.71%   9887.90%
                              58         2804     19.83%   9907.73%
                              60          962      6.80%   9914.53%
                              62          515      3.64%   9918.17%
                              64         2424     17.14%   9935.31%
                              66          301      2.13%   9937.44%
                              68          245      1.73%   9939.17%
                              70          429      3.03%   9942.20%
                              72          377      2.67%   9944.87%
                              74          197      1.39%   9946.26%
                              76          596      4.21%   9950.48%
                              78          822      5.81%   9956.29%
                              80          435      3.08%   9959.37%
                              82          246      1.74%   9961.10%
                              84          503      3.56%   9964.66%
                              86          716      5.06%   9969.72%
                              88          299      2.11%   9971.84%
                              90          830      5.87%   9977.71%
                              92          225      1.59%   9979.30%
                              94          302      2.14%   9981.43%
                              96          256      1.81%   9983.24%
                              98          147      1.04%   9984.28%
system.cpu0.IQ:residence:IprAccess.overflows         2223                      
system.cpu0.IQ:residence:IprAccess.max_value          290                      
system.cpu0.IQ:residence:IprAccess.end_dist

system.cpu0.IQ:residence:InstPrefetch.start_dist
system.cpu0.IQ:residence:InstPrefetch.samples            0                      
system.cpu0.IQ:residence:InstPrefetch.min_value            0                      
                               0            0                      
                               2            0                      
                               4            0                      
                               6            0                      
                               8            0                      
                              10            0                      
                              12            0                      
                              14            0                      
                              16            0                      
                              18            0                      
                              20            0                      
                              22            0                      
                              24            0                      
                              26            0                      
                              28            0                      
                              30            0                      
                              32            0                      
                              34            0                      
                              36            0                      
                              38            0                      
                              40            0                      
                              42            0                      
                              44            0                      
                              46            0                      
                              48            0                      
                              50            0                      
                              52            0                      
                              54            0                      
                              56            0                      
                              58            0                      
                              60            0                      
                              62            0                      
                              64            0                      
                              66            0                      
                              68            0                      
                              70            0                      
                              72            0                      
                              74            0                      
                              76            0                      
                              78            0                      
                              80            0                      
                              82            0                      
                              84            0                      
                              86            0                      
                              88            0                      
                              90            0                      
                              92            0                      
                              94            0                      
                              96            0                      
                              98            0                      
system.cpu0.IQ:residence:InstPrefetch.max_value            0                      
system.cpu0.IQ:residence:InstPrefetch.end_dist

system.cpu0.ISSUE:(null)_delay.start_dist 
system.cpu0.ISSUE:(null)_delay.samples           9703                      
system.cpu0.ISSUE:(null)_delay.min_value            1                      
                               0         8735   9002.37%   9002.37%
                               2          643    662.68%   9665.05%
                               4          158    162.84%   9827.89%
                               6           28     28.86%   9856.75%
                               8          123    126.76%   9983.51%
                              10            4      4.12%   9987.63%
                              12            2      2.06%   9989.69%
                              14            3      3.09%   9992.79%
                              16            2      2.06%   9994.85%
                              18            3      3.09%   9997.94%
                              20            2      2.06%  10000.00%
                              22            0      0.00%  10000.00%
                              24            0      0.00%  10000.00%
                              26            0      0.00%  10000.00%
                              28            0      0.00%  10000.00%
                              30            0      0.00%  10000.00%
                              32            0      0.00%  10000.00%
                              34            0      0.00%  10000.00%
                              36            0      0.00%  10000.00%
                              38            0      0.00%  10000.00%
                              40            0      0.00%  10000.00%
                              42            0      0.00%  10000.00%
                              44            0      0.00%  10000.00%
                              46            0      0.00%  10000.00%
                              48            0      0.00%  10000.00%
                              50            0      0.00%  10000.00%
                              52            0      0.00%  10000.00%
                              54            0      0.00%  10000.00%
                              56            0      0.00%  10000.00%
                              58            0      0.00%  10000.00%
                              60            0      0.00%  10000.00%
                              62            0      0.00%  10000.00%
                              64            0      0.00%  10000.00%
                              66            0      0.00%  10000.00%
                              68            0      0.00%  10000.00%
                              70            0      0.00%  10000.00%
                              72            0      0.00%  10000.00%
                              74            0      0.00%  10000.00%
                              76            0      0.00%  10000.00%
                              78            0      0.00%  10000.00%
                              80            0      0.00%  10000.00%
                              82            0      0.00%  10000.00%
                              84            0      0.00%  10000.00%
                              86            0      0.00%  10000.00%
                              88            0      0.00%  10000.00%
                              90            0      0.00%  10000.00%
                              92            0      0.00%  10000.00%
                              94            0      0.00%  10000.00%
                              96            0      0.00%  10000.00%
                              98            0      0.00%  10000.00%
system.cpu0.ISSUE:(null)_delay.max_value           21                      
system.cpu0.ISSUE:(null)_delay.end_dist

system.cpu0.ISSUE:IntAlu_delay.start_dist 
system.cpu0.ISSUE:IntAlu_delay.samples      112212306                      
system.cpu0.ISSUE:IntAlu_delay.min_value            0                      
                               0    100906902   8992.50%   8992.50%
                               2      5360630    477.72%   9470.22%
                               4      1811667    161.45%   9631.67%
                               6       788220     70.24%   9701.91%
                               8       472781     42.13%   9744.05%
                              10       339457     30.25%   9774.30%
                              12       316601     28.21%   9802.51%
                              14       795344     70.88%   9873.39%
                              16       674724     60.13%   9933.52%
                              18       274981     24.51%   9958.03%
                              20       208350     18.57%   9976.59%
                              22       250778     22.35%   9998.94%
                              24        11871      1.06%  10000.00%
                              26            0      0.00%  10000.00%
                              28            0      0.00%  10000.00%
                              30            0      0.00%  10000.00%
                              32            0      0.00%  10000.00%
                              34            0      0.00%  10000.00%
                              36            0      0.00%  10000.00%
                              38            0      0.00%  10000.00%
                              40            0      0.00%  10000.00%
                              42            0      0.00%  10000.00%
                              44            0      0.00%  10000.00%
                              46            0      0.00%  10000.00%
                              48            0      0.00%  10000.00%
                              50            0      0.00%  10000.00%
                              52            0      0.00%  10000.00%
                              54            0      0.00%  10000.00%
                              56            0      0.00%  10000.00%
                              58            0      0.00%  10000.00%
                              60            0      0.00%  10000.00%
                              62            0      0.00%  10000.00%
                              64            0      0.00%  10000.00%
                              66            0      0.00%  10000.00%
                              68            0      0.00%  10000.00%
                              70            0      0.00%  10000.00%
                              72            0      0.00%  10000.00%
                              74            0      0.00%  10000.00%
                              76            0      0.00%  10000.00%
                              78            0      0.00%  10000.00%
                              80            0      0.00%  10000.00%
                              82            0      0.00%  10000.00%
                              84            0      0.00%  10000.00%
                              86            0      0.00%  10000.00%
                              88            0      0.00%  10000.00%
                              90            0      0.00%  10000.00%
                              92            0      0.00%  10000.00%
                              94            0      0.00%  10000.00%
                              96            0      0.00%  10000.00%
                              98            0      0.00%  10000.00%
system.cpu0.ISSUE:IntAlu_delay.max_value           24                      
system.cpu0.ISSUE:IntAlu_delay.end_dist

system.cpu0.ISSUE:IntMult_delay.start_dist
system.cpu0.ISSUE:IntMult_delay.samples        385991                      
system.cpu0.ISSUE:IntMult_delay.min_value            0                      
                               0       290218   7518.78%   7518.78%
                               2        48299   1251.30%   8770.07%
                               4        23288    603.33%   9373.41%
                               6         6737    174.54%   9547.94%
                               8         1561     40.44%   9588.38%
                              10         2354     60.99%   9649.37%
                              12         1418     36.74%   9686.11%
                              14         1794     46.48%   9732.58%
                              16          530     13.73%   9746.32%
                              18         3646     94.46%   9840.77%
                              20         3544     91.82%   9932.59%
                              22         2163     56.04%   9988.63%
                              24          439     11.37%  10000.00%
                              26            0      0.00%  10000.00%
                              28            0      0.00%  10000.00%
                              30            0      0.00%  10000.00%
                              32            0      0.00%  10000.00%
                              34            0      0.00%  10000.00%
                              36            0      0.00%  10000.00%
                              38            0      0.00%  10000.00%
                              40            0      0.00%  10000.00%
                              42            0      0.00%  10000.00%
                              44            0      0.00%  10000.00%
                              46            0      0.00%  10000.00%
                              48            0      0.00%  10000.00%
                              50            0      0.00%  10000.00%
                              52            0      0.00%  10000.00%
                              54            0      0.00%  10000.00%
                              56            0      0.00%  10000.00%
                              58            0      0.00%  10000.00%
                              60            0      0.00%  10000.00%
                              62            0      0.00%  10000.00%
                              64            0      0.00%  10000.00%
                              66            0      0.00%  10000.00%
                              68            0      0.00%  10000.00%
                              70            0      0.00%  10000.00%
                              72            0      0.00%  10000.00%
                              74            0      0.00%  10000.00%
                              76            0      0.00%  10000.00%
                              78            0      0.00%  10000.00%
                              80            0      0.00%  10000.00%
                              82            0      0.00%  10000.00%
                              84            0      0.00%  10000.00%
                              86            0      0.00%  10000.00%
                              88            0      0.00%  10000.00%
                              90            0      0.00%  10000.00%
                              92            0      0.00%  10000.00%
                              94            0      0.00%  10000.00%
                              96            0      0.00%  10000.00%
                              98            0      0.00%  10000.00%
system.cpu0.ISSUE:IntMult_delay.max_value           24                      
system.cpu0.ISSUE:IntMult_delay.end_dist

system.cpu0.ISSUE:IntDiv_delay.start_dist 
system.cpu0.ISSUE:IntDiv_delay.samples              0                      
system.cpu0.ISSUE:IntDiv_delay.min_value            0                      
                               0            0                      
                               2            0                      
                               4            0                      
                               6            0                      
                               8            0                      
                              10            0                      
                              12            0                      
                              14            0                      
                              16            0                      
                              18            0                      
                              20            0                      
                              22            0                      
                              24            0                      
                              26            0                      
                              28            0                      
                              30            0                      
                              32            0                      
                              34            0                      
                              36            0                      
                              38            0                      
                              40            0                      
                              42            0                      
                              44            0                      
                              46            0                      
                              48            0                      
                              50            0                      
                              52            0                      
                              54            0                      
                              56            0                      
                              58            0                      
                              60            0                      
                              62            0                      
                              64            0                      
                              66            0                      
                              68            0                      
                              70            0                      
                              72            0                      
                              74            0                      
                              76            0                      
                              78            0                      
                              80            0                      
                              82            0                      
                              84            0                      
                              86            0                      
                              88            0                      
                              90            0                      
                              92            0                      
                              94            0                      
                              96            0                      
                              98            0                      
system.cpu0.ISSUE:IntDiv_delay.max_value            0                      
system.cpu0.ISSUE:IntDiv_delay.end_dist

system.cpu0.ISSUE:FloatAdd_delay.start_dist
system.cpu0.ISSUE:FloatAdd_delay.samples         9952                      
system.cpu0.ISSUE:FloatAdd_delay.min_value            0                      
                               0         5113   5137.66%   5137.66%
                               2          205    205.99%   5343.65%
                               4            6      6.03%   5349.68%
                               6          338    339.63%   5689.31%
                               8           32     32.15%   5721.46%
                              10          628    631.03%   6352.49%
                              12          899    903.34%   7255.83%
                              14          373    374.80%   7630.63%
                              16         2358   2369.37%  10000.00%
                              18            0      0.00%  10000.00%
                              20            0      0.00%  10000.00%
                              22            0      0.00%  10000.00%
                              24            0      0.00%  10000.00%
                              26            0      0.00%  10000.00%
                              28            0      0.00%  10000.00%
                              30            0      0.00%  10000.00%
                              32            0      0.00%  10000.00%
                              34            0      0.00%  10000.00%
                              36            0      0.00%  10000.00%
                              38            0      0.00%  10000.00%
                              40            0      0.00%  10000.00%
                              42            0      0.00%  10000.00%
                              44            0      0.00%  10000.00%
[...]
system.cpu0.kern.ipl_used_31                 0.779256                      
system.cpu0.kern.mode_good_kernel                3803                      
system.cpu0.kern.mode_good_user                  3473                      
system.cpu0.kern.mode_good_idle                   162                      
system.cpu0.kern.mode_good_interrupt              168                      
system.cpu0.kern.mode_switch_kernel             15342                      
system.cpu0.kern.mode_switch_user                3473                      
system.cpu0.kern.mode_switch_idle                6145                      
system.cpu0.kern.mode_switch_interrupt            168                      
system.cpu0.kern.mode_switch_good            0.302690                      
system.cpu0.kern.mode_switch_good_kernel     0.247882                      
system.cpu0.kern.mode_switch_good_user              1                      
system.cpu0.kern.mode_switch_good_idle       0.026363                      
system.cpu0.kern.mode_switch_good_interrupt            1                      
system.cpu0.kern.mode_ticks_kernel           72213944      9.06%      9.06%
system.cpu0.kern.mode_ticks_user             17209316      2.16%     11.22%
system.cpu0.kern.mode_ticks_idle            705608777     88.57%     99.79%
system.cpu0.kern.mode_ticks_interrupt         1662945      0.21%    100.00%
system.cpu0.kern.swap_context                    5689                      
system.cpu0.kern.syscall                         1107                      
system.cpu0.kern.syscall_exit                      23      2.08%      2.08%
system.cpu0.kern.syscall_fork                      12      1.08%      3.16%
system.cpu0.kern.syscall_read                      91      8.22%     11.38%
system.cpu0.kern.syscall_write                     93      8.40%     19.78%
system.cpu0.kern.syscall_close                     74      6.68%     26.47%
system.cpu0.kern.syscall_chdir                      2      0.18%     26.65%
system.cpu0.kern.syscall_chmod                      1      0.09%     26.74%
system.cpu0.kern.syscall_obreak                    62      5.60%     32.34%
system.cpu0.kern.syscall_lseek                     12      1.08%     33.42%
system.cpu0.kern.syscall_getpid                    76      6.87%     40.29%
system.cpu0.kern.syscall_setuid                     4      0.36%     40.65%
system.cpu0.kern.syscall_getuid                    12      1.08%     41.73%
system.cpu0.kern.syscall_access                     4      0.36%     42.10%
system.cpu0.kern.syscall_kill                      22      1.99%     44.08%
system.cpu0.kern.syscall_dup                        4      0.36%     44.44%
system.cpu0.kern.syscall_pipe                       1      0.09%     44.53%
system.cpu0.kern.syscall_open                      99      8.94%     53.48%
system.cpu0.kern.syscall_getgid                    12      1.08%     54.56%
system.cpu0.kern.syscall_sigprocmask               82      7.41%     61.97%
system.cpu0.kern.syscall_ioctl                     23      2.08%     64.05%
system.cpu0.kern.syscall_readlink                   3      0.27%     64.32%
system.cpu0.kern.syscall_execve                     9      0.81%     65.13%
system.cpu0.kern.syscall_pre_F64_stat              36      3.25%     68.38%
system.cpu0.kern.syscall_pre_F64_lstat              1      0.09%     68.47%
system.cpu0.kern.syscall_mmap                      90      8.13%     76.60%
system.cpu0.kern.syscall_munmap                    32      2.89%     79.49%
system.cpu0.kern.syscall_mprotect                  38      3.43%     82.93%
system.cpu0.kern.syscall_gethostname                3      0.27%     83.20%
system.cpu0.kern.syscall_dup2                       3      0.27%     83.47%
system.cpu0.kern.syscall_pre_F64_fstat             36      3.25%     86.72%
system.cpu0.kern.syscall_fcntl                     18      1.63%     88.35%
system.cpu0.kern.syscall_poll                      44      3.97%     92.32%
system.cpu0.kern.syscall_socket                     4      0.36%     92.68%
system.cpu0.kern.syscall_connect                    4      0.36%     93.04%
system.cpu0.kern.syscall_sigreturn                 43      3.88%     96.93%
system.cpu0.kern.syscall_sigsuspend                22      1.99%     98.92%
system.cpu0.kern.syscall_setgid                     4      0.36%     99.28%
system.cpu0.kern.syscall_getrlimit                  3      0.27%     99.55%
system.cpu0.kern.syscall_setsid                     3      0.27%     99.82%
system.cpu0.kern.syscall_getsysinfo                 1      0.09%     99.91%
system.cpu0.kern.syscall_setsysinfo                 1      0.09%    100.00%
system.cpu0.numCycles                       796696630                      
system.cpu0inst_class_dist.start_dist
                   All ops ready            0      0.00%           
                One op not ready            0      0.00%           
           None rdy, mult chains            0      0.00%           
           None rdy, one chained            0      0.00%           
        None rdy, all self-timed            0      0.00%           
system.cpu0inst_class_dist.end_dist
system.htbus.addr_idle_cycles               795723283                      
system.htbus.addr_idle_fraction              0.998778                      
system.htbus.addr_queued                    36.680660                      
system.htbus.addr_queued_cycles               4951779                      
system.htbus.addr_requests                     134997                      
system.htbus.bus_blocked                            0                      
system.htbus.bus_blocked_cycles                     0                      
system.htbus.bus_blocked_fraction                   0                      
system.htbus.data_idle_cycles               795621403                      
system.htbus.data_idle_fraction              0.998650                      
system.htbus.data_queued                            1                      
system.htbus.data_queued_cycles                  8817                      
system.htbus.data_requests                       8817                      
system.htbus.null_grants                            0                      
system.kern.fnCalls                                 0                      
system.l2.avg_blocked_cycles_no_mshrs    <err: div-0>                      
system.l2.avg_blocked_cycles_no_targets  <err: div-0>                      
system.l2.avg_refs                           2.429285                      
system.l2.blocked_no_mshrs                          0                      
system.l2.blocked_no_targets                        0                      
system.l2.blocked_cycles_no_mshrs                   0                      
system.l2.blocked_cycles_no_targets                 0                      
system.l2.cache_copies                              0                      
system.l2.demand_accesses                     3389598                      
system.l2.demand_avg_miss_latency           67.990653                      
system.l2.demand_avg_mshr_miss_latency      38.071551                      
system.l2.demand_hits                         2204679                      
system.l2.demand_miss_latency                80563416                      
system.l2.demand_miss_rate                   0.349575                      
system.l2.demand_misses                       1184919                      
system.l2.demand_mshr_hits                          0                      
system.l2.demand_mshr_miss_latency           45111704                      
system.l2.demand_mshr_miss_rate              0.349575                      
system.l2.demand_mshr_misses                  1184919                      
system.l2.fast_writes                               0                      
system.l2.mshr_cap_events                           0                      
system.l2.no_allocate_misses                        0                      
system.l2.overall_accesses                    4059636                      
system.l2.overall_avg_miss_latency          67.990653                      
system.l2.overall_avg_mshr_miss_latency     38.071551                      
system.l2.overall_avg_mshr_uncacheable_latency   230.925850                      
system.l2.overall_hits                        2874717                      
system.l2.overall_miss_latency               80563416                      
system.l2.overall_miss_rate                  0.291878                      
system.l2.overall_misses                      1184919                      
system.l2.overall_mshr_hits                         0                      
system.l2.overall_mshr_miss_latency          45111704                      
system.l2.overall_mshr_miss_rate             0.291878                      
system.l2.overall_mshr_misses                 1184919                      
system.l2.overall_mshr_uncacheable_latency      4855216                      
system.l2.overall_mshr_uncacheable_misses        21025                      
system.l2.prefetcher.num_hwpf_already_in_cache            0                      
system.l2.prefetcher.num_hwpf_already_in_mshr            0                      
system.l2.prefetcher.num_hwpf_already_in_prefetcher            0                      
system.l2.prefetcher.num_hwpf_evicted               0                      
system.l2.prefetcher.num_hwpf_identified            0                      
system.l2.prefetcher.num_hwpf_issued                0                      
system.l2.prefetcher.num_hwpf_removed_MSHR_hit            0                      
system.l2.prefetcher.num_hwpf_span_page             0                      
system.l2.prefetcher.num_hwpf_squashed_from_miss            0                      
system.l2.read_accesses                       3389598                      
system.l2.read_avg_miss_latency             67.990653                      
system.l2.read_avg_mshr_miss_latency        38.071551                      
system.l2.read_avg_mshr_uncacheable_latency   206.037873                      
system.l2.read_hits                           2204679                      
system.l2.read_miss_latency                  80563416                      
system.l2.read_miss_rate                     0.349575                      
system.l2.read_misses                         1184919                      
system.l2.read_mshr_miss_latency             45111704                      
system.l2.read_mshr_miss_rate                0.349575                      
system.l2.read_mshr_misses                    1184919                      
system.l2.read_mshr_uncacheable                  9611                      
system.l2.read_mshr_uncacheable_latency       1980230                      
system.l2.replacements                        1150743                      
system.l2.sampled_refs                        1182996                      
system.l2.soft_prefetch_mshr_full                   0                      
system.l2.tagsinuse                      32648.313345                      
system.l2.total_refs                          2873835                      
system.l2.warmup_cycle                        3594419                      
system.l2.write_avg_mshr_uncacheable_latency   251.882425                      
system.l2.write_mshr_uncacheable                11414                      
system.l2.write_mshr_uncacheable_latency      2874986                      
system.l2.writeback_accesses                   670038                      
system.l2.writeback_hits                       670038                      
system.l2.writebacks                           147165                      
system.l2bus.addr_idle_cycles               792548632                      
system.l2bus.addr_idle_fraction              0.994794                      
system.l2bus.addr_queued                     4.036640                      
system.l2bus.addr_queued_cycles              16739818                      
system.l2bus.addr_requests                    4146968                      
system.l2bus.bus_blocked                          233                      
system.l2bus.bus_blocked_cycles                102070                      
system.l2bus.bus_blocked_fraction            0.000128                      
system.l2bus.data_idle_cycles               792615891                      
system.l2bus.data_idle_fraction              0.994878                      
system.l2bus.data_queued                     1.020321                      
system.l2bus.data_queued_cycles               3468312                      
system.l2bus.data_requests                    3399236                      
system.l2bus.null_grants                        32689                      
system.membus.addr_idle_cycles              795221780                      
system.membus.addr_idle_fraction             0.998149                      
system.membus.addr_queued                   27.198939                      
system.membus.addr_queued_cycles             40101653                      
system.membus.addr_requests                   1474383                      
system.membus.bus_blocked                           0                      
system.membus.bus_blocked_cycles                    0                      
system.membus.bus_blocked_fraction                  0                      
system.membus.data_idle_cycles              791126659                      
system.membus.data_idle_fraction             0.993009                      
system.membus.data_queued                    2.180879                      
system.membus.data_queued_cycles              2605623                      
system.membus.data_requests                   1194758                      
system.membus.null_grants                           0                      
system.pcibus.addr_idle_cycles              795406758                      
system.pcibus.addr_idle_fraction             0.998381                      
system.pcibus.addr_queued                  564.019089                      
system.pcibus.addr_queued_cycles             76140885                      
system.pcibus.addr_requests                    134997                      
system.pcibus.bus_blocked                        3427                      
system.pcibus.bus_blocked_cycles                78818                      
system.pcibus.bus_blocked_fraction           0.000099                      
system.pcibus.data_idle_cycles              794486958                      
system.pcibus.data_idle_fraction             0.997226                      
system.pcibus.data_queued                    3.258705                      
system.pcibus.data_queued_cycles                28732                      
system.pcibus.data_requests                      8817                      
system.pcibus.null_grants                           0                      
system.ram.accesses                           1387128                      
system.ram.bytes_requested                          0                      
system.ram.bytes_sent                               0                      
system.ram.compressed_responses                     0                      
system.tsunami.etherdev0.coalescedRxDesc <err: div-0>                      
system.tsunami.etherdev0.coalescedRxIdle <err: div-0>                      
system.tsunami.etherdev0.coalescedRxOk       no value                      
system.tsunami.etherdev0.coalescedRxOrn  <err: div-0>                      
system.tsunami.etherdev0.coalescedSwi    <err: div-0>                      
system.tsunami.etherdev0.coalescedTotal  <err: div-0>                      
system.tsunami.etherdev0.coalescedTxDesc <err: div-0>                      
system.tsunami.etherdev0.coalescedTxIdle <err: div-0>                      
system.tsunami.etherdev0.coalescedTxOk   <err: div-0>                      
system.tsunami.etherdev0.descDMAReads               0                      
system.tsunami.etherdev0.descDMAWrites              0                      
system.tsunami.etherdev0.descDmaReadBytes            0                      
system.tsunami.etherdev0.descDmaWriteBytes            0                      
system.tsunami.etherdev0.dma.avg_large_transaction_latency <err: div-0>                      
system.tsunami.etherdev0.dma.avg_small_transaction_latency <err: div-0>                      
system.tsunami.etherdev0.dma.avg_transaction_latency <err: div-0>                      
system.tsunami.etherdev0.dma.bytes_transfered            0                      
system.tsunami.etherdev0.dma.large_transaction_latency            0                      
system.tsunami.etherdev0.dma.large_transactions            0                      
system.tsunami.etherdev0.dma.packets_sent            0                      
system.tsunami.etherdev0.dma.requests               0                      
system.tsunami.etherdev0.dma.round_trip_latency     no value                      
system.tsunami.etherdev0.dma.small_transaction_latency            0                      
system.tsunami.etherdev0.dma.small_transactions            0                      
system.tsunami.etherdev0.dma.total_cycle_latency            0                      
system.tsunami.etherdev0.dma.transaction_latency            0                      
system.tsunami.etherdev0.droppedPackets             0                      
system.tsunami.etherdev0.postedInterrupts            0                      
system.tsunami.etherdev0.postedRxDesc               0                      
system.tsunami.etherdev0.postedRxIdle               0                      
system.tsunami.etherdev0.postedRxOk                 0                      
system.tsunami.etherdev0.postedRxOrn                0                      
system.tsunami.etherdev0.postedSwi                  0                      
system.tsunami.etherdev0.postedTxDesc               0                      
system.tsunami.etherdev0.postedTxIdle               0                      
system.tsunami.etherdev0.postedTxOk                 0                      
system.tsunami.etherdev0.totalRxDesc                0                      
system.tsunami.etherdev0.totalRxIdle                0                      
system.tsunami.etherdev0.totalRxOk                  0                      
system.tsunami.etherdev0.totalRxOrn                 0                      
system.tsunami.etherdev0.totalSwi                   0                      
system.tsunami.etherdev0.totalTxDesc                0                      
system.tsunami.etherdev0.totalTxIdle                0                      
system.tsunami.etherdev0.totalTxOk                  0                      
system.tsunami.ide.dma.avg_large_transaction_latency  2822.707224                      
system.tsunami.ide.dma.avg_small_transaction_latency   228.235849                      
system.tsunami.ide.dma.avg_transaction_latency  2077.411924                      
system.tsunami.ide.dma.bytes_transfered       3522160                      
system.tsunami.ide.dma.large_transaction_latency      1484744                      
system.tsunami.ide.dma.large_transactions          526                      
system.tsunami.ide.dma.packets_sent             55044                      
system.tsunami.ide.dma.requests                   738                      
system.tsunami.ide.dma.round_trip_latency  1602.137563                      
system.tsunami.ide.dma.small_transaction_latency        48386                      
system.tsunami.ide.dma.small_transactions          212                      
system.tsunami.ide.dma.total_cycle_latency     88188060                      
system.tsunami.ide.dma.transaction_latency      1533130                      

---------- End Simulation Statistics   ----------
