
---------- Begin Simulation Statistics ----------
host_inst_rate                                  20720                      
host_mem_usage                                 196816                      
host_seconds                                 17648.37                      
host_tick_rate                                  98249                      
sim_freq                                    350000000                      
sim_insts                                   365666507                      
sim_seconds                                  4.954086                      
sim_ticks                                  1733929952                      
system.cpu0.COM:IPB                          6.501847                      
system.cpu0.COM:IPC                          0.044210                      
system.cpu0.COM:branches                     11789923                      
system.cpu0.COM:bw_lim_avg               <err: div-0>                      
system.cpu0.COM:bw_lim_events                       0                      
system.cpu0.COM:bw_lim_rate                    0.0000                      
system.cpu0.COM:bw_lim_stdev_0_mean      <err: div-0>                      
system.cpu0.COM:bw_lim_stdev_0_stdev     <err: div-0>                      
**Ignore: system.cpu0.COM:bw_lim_stdev_0_TOT       0.0000                      
system.cpu0.COM:bw_limited                          0                      
system.cpu0.COM:committed_per_cycle.start_dist
system.cpu0.COM:committed_per_cycle.samples     29037904                      
system.cpu0.COM:committed_per_cycle.min_value            0                      
                               0       336034    115.72%           
                               1      8481560   2920.86%           
                               2      5019341   1728.55%           
                               3      2539162    874.43%           
                               4     12661807   4360.44%           
system.cpu0.COM:committed_per_cycle.max_value            4                      
system.cpu0.COM:committed_per_cycle.end_dist

system.cpu0.COM:count                        76656275                      
system.cpu0.COM:loads                        13333551                      
system.cpu0.COM:membars                        265926                      
system.cpu0.COM:refs                         21583422                      
system.cpu0.COM:stores                        8249871                      
system.cpu0.COM:swp_count                      128681                      
system.cpu0.DDQ:count                      7707877335                      
system.cpu0.DDQ:rate                                4                      
system.cpu0.DIS:chain_creation.start_dist
     Inst has no outstanding IDEPS            0      0.00%           
      IDEP chain reached max depth            0      0.00%           
                    Inst is a load            0      0.00%           
  Chain has multiple chained IDEPS            0      0.00%           
system.cpu0.DIS:chain_creation.end_dist
system.cpu0.DIS:chain_head_frac                     0                      
system.cpu0.DIS:chain_heads                         0                      
system.cpu0.DIS:chains_insuf                        0                      
system.cpu0.DIS:chains_insuf_rate                   0                      
system.cpu0.DIS:count                        93927117                      
system.cpu0.DIS:insufficient_chains                 0                      
system.cpu0.DIS:mod_n_stall_avg_free     <err: div-0>                      
system.cpu0.DIS:mod_n_stall_frac                    0                      
system.cpu0.DIS:mod_n_stall_free                    0                      
system.cpu0.DIS:mod_n_stalls                        0                      
system.cpu0.DIS:one_rdy_insts                       0                      
system.cpu0.DIS:one_rdy_ratio            <err: div-0>                      
system.cpu0.DIS:op_count                    120363606                      
system.cpu0.DIS:op_rate                      0.069417                      
system.cpu0.DIS:rate                         0.054170                      
system.cpu0.DIS:second_choice_clust                 0                      
system.cpu0.DIS:second_choice_stall                 0                      
system.cpu0.DIS:serialize_stall_cycles        7633920                      
system.cpu0.DIS:serializing_insts              263222                      
system.cpu0.DIS:two_input_insts                     0                      
system.cpu0.DIS:two_input_ratio                     0                      
system.cpu0.FETCH:branch_count               28596095                      
system.cpu0.FETCH:branch_rate                0.016492                      
system.cpu0.FETCH:chance_pct                        1                      
system.cpu0.FETCH:chances                    43313916                      
system.cpu0.FETCH:choice                     43313916                      
system.cpu0.FETCH:count                     146682608                      
system.cpu0.FETCH:decisions                  43313916                      
system.cpu0.FETCH:idle_cycles              1690616037                      
system.cpu0.FETCH:idle_icache_blocked_cycles            0                      
system.cpu0.FETCH:idle_rate                     97.50                      
system.cpu0.FETCH:prio_changes                      0                      
system.cpu0.FETCH:rate                       0.084595                      
system.cpu0.FETCH:rate_dist.start_dist    
system.cpu0.FETCH:rate_dist.samples          43313916                      
system.cpu0.FETCH:rate_dist.min_value               0                      
                               0       132987     30.70%           
                               1      5159963   1191.29%           
                               2      2340973    540.47%           
                               3      5879273   1357.36%           
                               4     29800720   6880.17%           
system.cpu0.FETCH:rate_dist.max_value               4                      
system.cpu0.FETCH:rate_dist.end_dist

system.cpu0.FETCH:rate_dist_0.start_dist  
system.cpu0.FETCH:rate_dist_0.samples        43313916                      
system.cpu0.FETCH:rate_dist_0.min_value             0                      
                               0       132987     30.70%           
                               1      5159963   1191.29%           
                               2      2340973    540.47%           
                               3      5879273   1357.36%           
                               4     29800720   6880.17%           
system.cpu0.FETCH:rate_dist_0.max_value             4                      
system.cpu0.FETCH:rate_dist_0.end_dist

system.cpu0.IFQ:count                      3455990487                      
system.cpu0.IFQ:full_count                  101208826                      
system.cpu0.IFQ:full_rate                    5.836962                      
system.cpu0.IFQ:latency                     36.794385                      
system.cpu0.IFQ:occupancy                    1.993155                      
system.cpu0.IFQ:qfull_iq_occ               5177134283                      
system.cpu0.IFQ:qfull_iq_occ_dist_0.start_dist
system.cpu0.IFQ:qfull_iq_occ_dist_0.samples     86484966                      
system.cpu0.IFQ:qfull_iq_occ_dist_0.min_value            0                      
                               0      4370818    505.38%           
                              10       600254     69.41%           
                              20       459615     53.14%           
                              30       610521     70.59%           
                              40       652523     75.45%           
                              50       740901     85.67%           
                              60     79050334   9140.36%           
system.cpu0.IFQ:qfull_iq_occ_dist_0.max_value           64                      
system.cpu0.IFQ:qfull_iq_occ_dist_0.end_dist

system.cpu0.IFQ:qfull_rob_occ              8031187269                      
system.cpu0.IFQ:qfull_rob_occ_dist_0.start_dist
system.cpu0.IFQ:qfull_rob_occ_dist_0.samples     86484966                      
system.cpu0.IFQ:qfull_rob_occ_dist_0.min_value            1                      
                               0      1080229    124.90%           
                              10      1204287    139.25%           
                              20       836639     96.74%           
                              30       401807     46.46%           
                              40       228067     26.37%           
                              50       152305     17.61%           
                              60      3288436    380.23%           
                              70      1066169    123.28%           
                              80       454216     52.52%           
                              90     74139585   8572.54%           
                             100       867421    100.30%           
                             110      1062421    122.84%           
                             120      1703384    196.96%           
                             130            0      0.00%           
system.cpu0.IFQ:qfull_rob_occ_dist_0.max_value          128                      
system.cpu0.IFQ:qfull_rob_occ_dist_0.end_dist

system.cpu0.IQ:cap_events                           0                      
system.cpu0.IQ:cap_inst                             0                      
system.cpu0.IQ:residence:(null).start_dist
system.cpu0.IQ:residence:(null).samples          6720                      
system.cpu0.IQ:residence:(null).min_value            1                      
                               0         6073   9037.20%   9037.20%
                               2          446    663.69%   9700.89%
                               4           97    144.35%   9845.24%
                               6           19     28.27%   9873.51%
                               8           73    108.63%   9982.14%
                              10            3      4.46%   9986.61%
                              12            3      4.46%   9991.07%
                              14            1      1.49%   9992.56%
                              16            2      2.98%   9995.54%
                              18            3      4.46%  10000.00%
                              20            0      0.00%  10000.00%
                              22            0      0.00%  10000.00%
                              24            0      0.00%  10000.00%
                              26            0      0.00%  10000.00%
                              28            0      0.00%  10000.00%
                              30            0      0.00%  10000.00%
                              32            0      0.00%  10000.00%
                              34            0      0.00%  10000.00%
                              36            0      0.00%  10000.00%
                              38            0      0.00%  10000.00%
                              40            0      0.00%  10000.00%
                              42            0      0.00%  10000.00%
                              44            0      0.00%  10000.00%
                              46            0      0.00%  10000.00%
                              48            0      0.00%  10000.00%
                              50            0      0.00%  10000.00%
                              52            0      0.00%  10000.00%
                              54            0      0.00%  10000.00%
                              56            0      0.00%  10000.00%
                              58            0      0.00%  10000.00%
                              60            0      0.00%  10000.00%
                              62            0      0.00%  10000.00%
                              64            0      0.00%  10000.00%
                              66            0      0.00%  10000.00%
                              68            0      0.00%  10000.00%
                              70            0      0.00%  10000.00%
                              72            0      0.00%  10000.00%
                              74            0      0.00%  10000.00%
                              76            0      0.00%  10000.00%
                              78            0      0.00%  10000.00%
                              80            0      0.00%  10000.00%
                              82            0      0.00%  10000.00%
                              84            0      0.00%  10000.00%
                              86            0      0.00%  10000.00%
                              88            0      0.00%  10000.00%
                              90            0      0.00%  10000.00%
                              92            0      0.00%  10000.00%
                              94            0      0.00%  10000.00%
                              96            0      0.00%  10000.00%
                              98            0      0.00%  10000.00%
system.cpu0.IQ:residence:(null).max_value           19                      
system.cpu0.IQ:residence:(null).end_dist

system.cpu0.IQ:residence:IntAlu.start_dist
system.cpu0.IQ:residence:IntAlu.samples      59121797                      
system.cpu0.IQ:residence:IntAlu.min_value            1                      
                               0     13023094   2202.76%   2202.76%
                               2      8058403   1363.02%   3565.77%
                               4      5138395    869.12%   4434.89%
                               6      3940171    666.45%   5101.34%
                               8      3143553    531.71%   5633.05%
                              10      2005264    339.18%   5972.23%
                              12      1808093    305.83%   6278.05%
                              14      1693209    286.39%   6564.45%
                              16      1919726    324.71%   6889.15%
                              18      1912354    323.46%   7212.61%
                              20      2097872    354.84%   7567.45%
                              22      2257057    381.76%   7949.22%
                              24      1322856    223.75%   8172.97%
                              26       725137    122.65%   8295.62%
                              28       467614     79.09%   8374.71%
                              30       440038     74.43%   8449.14%
                              32       384800     65.09%   8514.23%
                              34       334081     56.51%   8570.73%
                              36       400702     67.78%   8638.51%
                              38       349807     59.17%   8697.68%
                              40       302769     51.21%   8748.89%
                              42       234323     39.63%   8788.52%
                              44       244180     41.30%   8829.82%
                              46       220739     37.34%   8867.16%
                              48       188573     31.90%   8899.05%
                              50       192894     32.63%   8931.68%
                              52       202357     34.23%   8965.91%
                              54       202301     34.22%   9000.13%
                              56        75676     12.80%   9012.93%
                              58        82282     13.92%   9026.84%
                              60        76180     12.89%   9039.73%
                              62       175752     29.73%   9069.46%
                              64        99263     16.79%   9086.25%
                              66        74009     12.52%   9098.76%
                              68        76171     12.88%   9111.65%
                              70        45034      7.62%   9119.26%
                              72        49325      8.34%   9127.61%
                              74        43521      7.36%   9134.97%
                              76        54961      9.30%   9144.26%
                              78        62845     10.63%   9154.89%
                              80        35460      6.00%   9160.89%
                              82        39011      6.60%   9167.49%
                              84        36402      6.16%   9173.65%
                              86        35475      6.00%   9179.65%
                              88        43388      7.34%   9186.99%
                              90        47607      8.05%   9195.04%
                              92        40228      6.80%   9201.84%
                              94        33278      5.63%   9207.47%
                              96        27289      4.62%   9212.09%
                              98        55812      9.44%   9221.53%
system.cpu0.IQ:residence:IntAlu.overflows      4602466                      
system.cpu0.IQ:residence:IntAlu.max_value        20147                      
system.cpu0.IQ:residence:IntAlu.end_dist

system.cpu0.IQ:residence:IntMult.start_dist
system.cpu0.IQ:residence:IntMult.samples       210483                      
system.cpu0.IQ:residence:IntMult.min_value            1                      
                               0         4199    199.49%    199.49%
                               2         2988    141.96%    341.45%
                               4         7805    370.81%    712.27%
                               6         4497    213.65%    925.92%
                               8         4866    231.18%   1157.10%
                              10         4966    235.93%   1393.03%
                              12         2846    135.21%   1528.25%
                              14         2525    119.96%   1648.21%
                              16         6656    316.23%   1964.43%
                              18         7846    372.76%   2337.20%
                              20        47167   2240.89%   4578.09%
                              22        64362   3057.82%   7635.91%
                              24        24761   1176.39%   8812.30%
                              26         2555    121.39%   8933.69%
                              28          256     12.16%   8945.85%
                              30         1524     72.40%   9018.26%
                              32         1424     67.65%   9085.91%
                              34         1716     81.53%   9167.44%
                              36         1947     92.50%   9259.94%
                              38         1738     82.57%   9342.51%
                              40         5627    267.34%   9609.85%
                              42          990     47.03%   9656.88%
                              44          227     10.78%   9667.67%
                              46           82      3.90%   9671.56%
                              48          394     18.72%   9690.28%
                              50          206      9.79%   9700.07%
                              52          186      8.84%   9708.91%
                              54          322     15.30%   9724.21%
                              56          566     26.89%   9751.10%
                              58           64      3.04%   9754.14%
                              60           18      0.86%   9754.99%
                              62          345     16.39%   9771.38%
                              64           28      1.33%   9772.71%
                              66           38      1.81%   9774.52%
                              68           46      2.19%   9776.70%
                              70          187      8.88%   9785.59%
                              72          145      6.89%   9792.48%
                              74          140      6.65%   9799.13%
                              76           39      1.85%   9800.98%
                              78           90      4.28%   9805.26%
                              80           56      2.66%   9807.92%
                              82          103      4.89%   9812.81%
                              84           29      1.38%   9814.19%
                              86           16      0.76%   9814.95%
                              88           60      2.85%   9817.80%
                              90            6      0.29%   9818.09%
                              92            2      0.10%   9818.18%
                              94            8      0.38%   9818.56%
                              96            1      0.05%   9818.61%
                              98            1      0.05%   9818.66%
system.cpu0.IQ:residence:IntMult.overflows         3817                      
system.cpu0.IQ:residence:IntMult.max_value          678                      
system.cpu0.IQ:residence:IntMult.end_dist

system.cpu0.IQ:residence:IntDiv.start_dist
system.cpu0.IQ:residence:IntDiv.samples             0                      
system.cpu0.IQ:residence:IntDiv.min_value            0                      
                               0            0                      
                               2            0                      
                               4            0                      
                               6            0                      
                               8            0                      
                              10            0                      
                              12            0                      
                              14            0                      
                              16            0                      
                              18            0                      
                              20            0                      
                              22            0                      
                              24            0                      
                              26            0                      
                              28            0                      
                              30            0                      
                              32            0                      
                              34            0                      
                              36            0                      
                              38            0                      
                              40            0                      
                              42            0                      
                              44            0                      
                              46            0                      
                              48            0                      
                              50            0                      
                              52            0                      
                              54            0                      
                              56            0                      
                              58            0                      
                              60            0                      
                              62            0                      
                              64            0                      
                              66            0                      
                              68            0                      
                              70            0                      
                              72            0                      
                              74            0                      
                              76            0                      
                              78            0                      
                              80            0                      
                              82            0                      
                              84            0                      
                              86            0                      
                              88            0                      
                              90            0                      
                              92            0                      
                              94            0                      
                              96            0                      
                              98            0                      
system.cpu0.IQ:residence:IntDiv.max_value            0                      
system.cpu0.IQ:residence:IntDiv.end_dist

system.cpu0.IQ:residence:FloatAdd.start_dist
system.cpu0.IQ:residence:FloatAdd.samples         7754                      
system.cpu0.IQ:residence:FloatAdd.min_value            1                      
                               0          104    134.12%    134.12%
                               2          157    202.48%    336.60%
                               4          138    177.97%    514.57%
                               6         1823   2351.04%   2865.62%
                               8           28     36.11%   2901.73%
                              10          576    742.84%   3644.57%
                              12          715    922.10%   4566.68%
                              14         1096   1413.46%   5980.14%
                              16         1236   1594.02%   7574.16%
                              18            2      2.58%   7576.73%
                              20            0      0.00%   7576.73%
                              22            0      0.00%   7576.73%
                              24            1      1.29%   7578.02%
                              26            0      0.00%   7578.02%
                              28            1      1.29%   7579.31%
                              30            0      0.00%   7579.31%
                              32            3      3.87%   7583.18%
                              34           29     37.40%   7620.58%
                              36         1145   1476.66%   9097.24%
                              38          689    888.57%   9985.81%
                              40            0      0.00%   9985.81%
                              42            0      0.00%   9985.81%
                              44            0      0.00%   9985.81%
                              46            0      0.00%   9985.81%
                              48            0      0.00%   9985.81%
                              50            2      2.58%   9988.39%
                              52            0      0.00%   9988.39%
                              54            0      0.00%   9988.39%
                              56            1      1.29%   9989.68%
                              58            0      0.00%   9989.68%
                              60            1      1.29%   9990.97%
                              62            1      1.29%   9992.26%
                              64            0      0.00%   9992.26%
                              66            0      0.00%   9992.26%
                              68            0      0.00%   9992.26%
                              70            0      0.00%   9992.26%
                              72            0      0.00%   9992.26%
                              74            0      0.00%   9992.26%
                              76            0      0.00%   9992.26%
                              78            0      0.00%   9992.26%
                              80            3      3.87%   9996.13%
                              82            0      0.00%   9996.13%
                              84            2      2.58%   9998.71%
                              86            0      0.00%   9998.71%
                              88            0      0.00%   9998.71%
                              90            0      0.00%   9998.71%
                              92            1      1.29%  10000.00%
                              94            0      0.00%  10000.00%
                              96            0      0.00%  10000.00%
                              98            0      0.00%  10000.00%
system.cpu0.IQ:residence:FloatAdd.max_value           92                      
system.cpu0.IQ:residence:FloatAdd.end_dist

system.cpu0.IQ:residence:FloatCmp.start_dist
system.cpu0.IQ:residence:FloatCmp.samples            0                      
system.cpu0.IQ:residence:FloatCmp.min_value            0                      
                               0            0                      
                               2            0                      
                               4            0                      
                               6            0                      
                               8            0                      
                              10            0                      
                              12            0                      
                              14            0                      
                              16            0                      
                              18            0                      
                              20            0                      
                              22            0                      
                              24            0                      
                              26            0                      
                              28            0                      
                              30            0                      
                              32            0                      
                              34            0                      
                              36            0                      
                              38            0                      
                              40            0                      
                              42            0                      
                              44            0                      
                              46            0                      
                              48            0                      
                              50            0                      
                              52            0                      
                              54            0                      
                              56            0                      
                              58            0                      
                              60            0                      
                              62            0                      
                              64            0                      
                              66            0                      
                              68            0                      
                              70            0                      
                              72            0                      
                              74            0                      
                              76            0                      
                              78            0                      
                              80            0                      
                              82            0                      
                              84            0                      
                              86            0                      
                              88            0                      
                              90            0                      
                              92            0                      
                              94            0                      
                              96            0                      
                              98            0                      
system.cpu0.IQ:residence:FloatCmp.max_value            0                      
system.cpu0.IQ:residence:FloatCmp.end_dist

system.cpu0.IQ:residence:FloatCvt.start_dist
system.cpu0.IQ:residence:FloatCvt.samples            0                      
system.cpu0.IQ:residence:FloatCvt.min_value            0                      
                               0            0                      
                               2            0                      
                               4            0                      
                               6            0                      
                               8            0                      
                              10            0                      
                              12            0                      
                              14            0                      
                              16            0                      
                              18            0                      
                              20            0                      
                              22            0                      
                              24            0                      
                              26            0                      
                              28            0                      
                              30            0                      
                              32            0                      
                              34            0                      
                              36            0                      
                              38            0                      
                              40            0                      
                              42            0                      
                              44            0                      
                              46            0                      
                              48            0                      
                              50            0                      
                              52            0                      
                              54            0                      
                              56            0                      
                              58            0                      
                              60            0                      
                              62            0                      
                              64            0                      
                              66            0                      
                              68            0                      
                              70            0                      
                              72            0                      
                              74            0                      
                              76            0                      
                              78            0                      
                              80            0                      
                              82            0                      
                              84            0                      
                              86            0                      
                              88            0                      
                              90            0                      
                              92            0                      
                              94            0                      
                              96            0                      
                              98            0                      
system.cpu0.IQ:residence:FloatCvt.max_value            0                      
system.cpu0.IQ:residence:FloatCvt.end_dist

system.cpu0.IQ:residence:FloatMult.start_dist
system.cpu0.IQ:residence:FloatMult.samples            2                      
system.cpu0.IQ:residence:FloatMult.min_value            5                      
                               0            0      0.00%      0.00%
                               2            0      0.00%      0.00%
                               4            2  10000.00%  10000.00%
                               6            0      0.00%  10000.00%
                               8            0      0.00%  10000.00%
                              10            0      0.00%  10000.00%
                              12            0      0.00%  10000.00%
                              14            0      0.00%  10000.00%
                              16            0      0.00%  10000.00%
                              18            0      0.00%  10000.00%
                              20            0      0.00%  10000.00%
                              22            0      0.00%  10000.00%
                              24            0      0.00%  10000.00%
                              26            0      0.00%  10000.00%
                              28            0      0.00%  10000.00%
                              30            0      0.00%  10000.00%
                              32            0      0.00%  10000.00%
                              34            0      0.00%  10000.00%
                              36            0      0.00%  10000.00%
                              38            0      0.00%  10000.00%
                              40            0      0.00%  10000.00%
                              42            0      0.00%  10000.00%
                              44            0      0.00%  10000.00%
                              46            0      0.00%  10000.00%
                              48            0      0.00%  10000.00%
                              50            0      0.00%  10000.00%
                              52            0      0.00%  10000.00%
                              54            0      0.00%  10000.00%
                              56            0      0.00%  10000.00%
                              58            0      0.00%  10000.00%
                              60            0      0.00%  10000.00%
                              62            0      0.00%  10000.00%
                              64            0      0.00%  10000.00%
                              66            0      0.00%  10000.00%
                              68            0      0.00%  10000.00%
                              70            0      0.00%  10000.00%
                              72            0      0.00%  10000.00%
                              74            0      0.00%  10000.00%
                              76            0      0.00%  10000.00%
                              78            0      0.00%  10000.00%
                              80            0      0.00%  10000.00%
                              82            0      0.00%  10000.00%
                              84            0      0.00%  10000.00%
                              86            0      0.00%  10000.00%
                              88            0      0.00%  10000.00%
                              90            0      0.00%  10000.00%
                              92            0      0.00%  10000.00%
                              94            0      0.00%  10000.00%
                              96            0      0.00%  10000.00%
                              98            0      0.00%  10000.00%
system.cpu0.IQ:residence:FloatMult.max_value            5                      
system.cpu0.IQ:residence:FloatMult.end_dist

system.cpu0.IQ:residence:FloatDiv.start_dist
system.cpu0.IQ:residence:FloatDiv.samples           62                      
system.cpu0.IQ:residence:FloatDiv.min_value            6                      
                               0            0      0.00%      0.00%
                               2            0      0.00%      0.00%
                               4            0      0.00%      0.00%
                               6           61   9838.71%   9838.71%
                               8            0      0.00%   9838.71%
                              10            0      0.00%   9838.71%
                              12            0      0.00%   9838.71%
                              14            0      0.00%   9838.71%
                              16            0      0.00%   9838.71%
                              18            0      0.00%   9838.71%
                              20            0      0.00%   9838.71%
                              22            0      0.00%   9838.71%
                              24            0      0.00%   9838.71%
                              26            0      0.00%   9838.71%
                              28            0      0.00%   9838.71%
                              30            0      0.00%   9838.71%
                              32            0      0.00%   9838.71%
                              34            0      0.00%   9838.71%
                              36            0      0.00%   9838.71%
                              38            0      0.00%   9838.71%
                              40            0      0.00%   9838.71%
                              42            0      0.00%   9838.71%
                              44            0      0.00%   9838.71%
                              46            0      0.00%   9838.71%
                              48            0      0.00%   9838.71%
                              50            0      0.00%   9838.71%
                              52            1    161.29%  10000.00%
                              54            0      0.00%  10000.00%
                              56            0      0.00%  10000.00%
                              58            0      0.00%  10000.00%
                              60            0      0.00%  10000.00%
                              62            0      0.00%  10000.00%
                              64            0      0.00%  10000.00%
                              66            0      0.00%  10000.00%
                              68            0      0.00%  10000.00%
                              70            0      0.00%  10000.00%
                              72            0      0.00%  10000.00%
                              74            0      0.00%  10000.00%
                              76            0      0.00%  10000.00%
                              78            0      0.00%  10000.00%
                              80            0      0.00%  10000.00%
                              82            0      0.00%  10000.00%
                              84            0      0.00%  10000.00%
                              86            0      0.00%  10000.00%
                              88            0      0.00%  10000.00%
                              90            0      0.00%  10000.00%
                              92            0      0.00%  10000.00%
                              94            0      0.00%  10000.00%
                              96            0      0.00%  10000.00%
                              98            0      0.00%  10000.00%
system.cpu0.IQ:residence:FloatDiv.max_value           53                      
system.cpu0.IQ:residence:FloatDiv.end_dist

system.cpu0.IQ:residence:FloatSqrt.start_dist
system.cpu0.IQ:residence:FloatSqrt.samples            0                      
system.cpu0.IQ:residence:FloatSqrt.min_value            0                      
                               0            0                      
                               2            0                      
                               4            0                      
                               6            0                      
                               8            0                      
                              10            0                      
                              12            0                      
                              14            0                      
                              16            0                      
                              18            0                      
                              20            0                      
                              22            0                      
                              24            0                      
                              26            0                      
                              28            0                      
                              30            0                      
                              32            0                      
                              34            0                      
                              36            0                      
                              38            0                      
                              40            0                      
                              42            0                      
                              44            0                      
                              46            0                      
                              48            0                      
                              50            0                      
                              52            0                      
                              54            0                      
                              56            0                      
                              58            0                      
                              60            0                      
                              62            0                      
                              64            0                      
                              66            0                      
                              68            0                      
                              70            0                      
                              72            0                      
                              74            0                      
                              76            0                      
                              78            0                      
                              80            0                      
                              82            0                      
                              84            0                      
                              86            0                      
                              88            0                      
                              90            0                      
                              92            0                      
                              94            0                      
                              96            0                      
                              98            0                      
system.cpu0.IQ:residence:FloatSqrt.max_value            0                      
system.cpu0.IQ:residence:FloatSqrt.end_dist

system.cpu0.IQ:residence:MemRead.start_dist
system.cpu0.IQ:residence:MemRead.samples     29590173                      
system.cpu0.IQ:residence:MemRead.min_value            1                      
                               0      3214123   1086.21%   1086.21%
                               2      4953835   1674.15%   2760.36%
                               4      2540967    858.72%   3619.08%
                               6      2070362    699.68%   4318.76%
                               8      1514940    511.97%   4830.73%
                              10      1277944    431.88%   5262.62%
                              12       975585    329.70%   5592.31%
                              14       878662    296.94%   5889.26%
                              16       952145    321.78%   6211.04%
                              18      1258807    425.41%   6636.45%
                              20      1652626    558.51%   7194.95%
                              22      1897214    641.16%   7836.12%
                              24       659052    222.73%   8058.85%
                              26       178184     60.22%   8119.06%
                              28       145777     49.27%   8168.33%
                              30       139509     47.15%   8215.47%
                              32       107555     36.35%   8251.82%
                              34       175973     59.47%   8311.29%
                              36       193378     65.35%   8376.65%
                              38       194042     65.58%   8442.22%
                              40       121029     40.90%   8483.12%
                              42       135485     45.79%   8528.91%
                              44        98566     33.31%   8562.22%
                              46       145168     49.06%   8611.28%
                              48        56519     19.10%   8630.38%
                              50        97097     32.81%   8663.20%
                              52        51229     17.31%   8680.51%
                              54        65525     22.14%   8702.65%
                              56        37985     12.84%   8715.49%
                              58        38747     13.09%   8728.58%
                              60        66119     22.34%   8750.93%
                              62        48941     16.54%   8767.47%
                              64       107859     36.45%   8803.92%
                              66        25360      8.57%   8812.49%
                              68        24399      8.25%   8820.74%
                              70        20603      6.96%   8827.70%
                              72        30093     10.17%   8837.87%
                              74        25849      8.74%   8846.60%
                              76        23017      7.78%   8854.38%
                              78        35885     12.13%   8866.51%
                              80        26333      8.90%   8875.41%
                              82        21880      7.39%   8882.80%
                              84        27341      9.24%   8892.04%
                              86        33887     11.45%   8903.50%
                              88        14006      4.73%   8908.23%
                              90        18335      6.20%   8914.42%
                              92        13926      4.71%   8919.13%
                              94        19751      6.67%   8925.81%
                              96        18170      6.14%   8931.95%
                              98         7144      2.41%   8934.36%
system.cpu0.IQ:residence:MemRead.overflows      3153245                      
system.cpu0.IQ:residence:MemRead.max_value        20143                      
system.cpu0.IQ:residence:MemRead.end_dist

system.cpu0.IQ:residence:MemWrite.start_dist
system.cpu0.IQ:residence:MemWrite.samples     17438815                      
system.cpu0.IQ:residence:MemWrite.min_value            1                      
                               0      1565579    897.76%    897.76%
                               2      3201018   1835.57%   2733.33%
                               4      1933830   1108.92%   3842.25%
                               6      1551246    889.54%   4731.79%
                               8      1230320    705.51%   5437.29%
                              10       733830    420.80%   5858.09%
                              12       562444    322.52%   6180.62%
                              14       518229    297.17%   6477.79%
                              16       588474    337.45%   6815.24%
                              18       713287    409.02%   7224.26%
                              20       937889    537.82%   7762.08%
                              22      1154508    662.03%   8424.11%
                              24       656182    376.28%   8800.39%
                              26       167455     96.02%   8896.41%
                              28       138056     79.17%   8975.58%
                              30        93436     53.58%   9029.16%
                              32       140731     80.70%   9109.86%
                              34       127160     72.92%   9182.78%
                              36       152270     87.32%   9270.09%
                              38       124608     71.45%   9341.55%
                              40       112462     64.49%   9406.04%
                              42        83814     48.06%   9454.10%
                              44        76833     44.06%   9498.16%
                              46        50138     28.75%   9526.91%
                              48        38511     22.08%   9548.99%
                              50       132949     76.24%   9625.23%
                              52        38310     21.97%   9647.20%
                              54        22326     12.80%   9660.00%
                              56        23462     13.45%   9673.45%
                              58        14756      8.46%   9681.92%
                              60        26010     14.92%   9696.83%
                              62        52931     30.35%   9727.18%
                              64       116784     66.97%   9794.15%
                              66        10063      5.77%   9799.92%
                              68        10699      6.14%   9806.06%
                              70        13351      7.66%   9813.71%
                              72        16696      9.57%   9823.29%
                              74        14733      8.45%   9831.73%
                              76        24022     13.78%   9845.51%
                              78        23482     13.47%   9858.97%
                              80        14289      8.19%   9867.17%
                              82        14630      8.39%   9875.56%
                              84        10038      5.76%   9881.31%
                              86         8782      5.04%   9886.35%
                              88         8684      4.98%   9891.33%
                              90         9794      5.62%   9896.95%
                              92         7308      4.19%   9901.14%
                              94         5554      3.18%   9904.32%
                              96         3142      1.80%   9906.12%
                              98         5625      3.23%   9909.35%
system.cpu0.IQ:residence:MemWrite.overflows       158085                      
system.cpu0.IQ:residence:MemWrite.max_value        20148                      
system.cpu0.IQ:residence:MemWrite.end_dist

system.cpu0.IQ:residence:IprAccess.start_dist
system.cpu0.IQ:residence:IprAccess.samples      1242129                      
system.cpu0.IQ:residence:IprAccess.min_value            1                      
                               0       263201   2118.95%   2118.95%
                               2       218744   1761.04%   3879.99%
                               4        70466    567.30%   4447.29%
                               6       237158   1909.29%   6356.58%
                               8       195854   1576.76%   7933.34%
                              10        57482    462.77%   8396.11%
                              12        39421    317.37%   8713.48%
                              14        25295    203.64%   8917.12%
                              16        31844    256.37%   9173.48%
                              18        19475    156.79%   9330.27%
                              20        17672    142.27%   9472.54%
                              22        14796    119.12%   9591.66%
                              24         8098     65.19%   9656.86%
                              26         5796     46.66%   9703.52%
                              28         8324     67.01%   9770.53%
                              30         2195     17.67%   9788.20%
                              32         1290     10.39%   9798.59%
                              34         1714     13.80%   9812.39%
                              36         3005     24.19%   9836.58%
                              38         2964     23.86%   9860.44%
                              40          754      6.07%   9866.51%
                              42          326      2.62%   9869.14%
                              44          950      7.65%   9876.78%
                              46          894      7.20%   9883.98%
                              48         1144      9.21%   9893.19%
                              50          589      4.74%   9897.93%
                              52          922      7.42%   9905.36%
                              54          641      5.16%   9910.52%
                              56          512      4.12%   9914.64%
                              58         2437     19.62%   9934.26%
                              60          590      4.75%   9939.01%
                              62          526      4.23%   9943.24%
                              64         1512     12.17%   9955.42%
                              66          271      2.18%   9957.60%
                              68          232      1.87%   9959.46%
                              70          496      3.99%   9963.46%
                              72          481      3.87%   9967.33%
                              74          208      1.67%   9969.00%
                              76          234      1.88%   9970.89%
                              78          187      1.51%   9972.39%
                              80          136      1.09%   9973.49%
                              82          135      1.09%   9974.58%
                              84           71      0.57%   9975.15%
                              86          250      2.01%   9977.16%
                              88           63      0.51%   9977.67%
                              90          320      2.58%   9980.24%
                              92          108      0.87%   9981.11%
                              94          319      2.57%   9983.68%
                              96           58      0.47%   9984.15%
                              98          159      1.28%   9985.43%
system.cpu0.IQ:residence:IprAccess.overflows         1810                      
system.cpu0.IQ:residence:IprAccess.max_value          290                      
system.cpu0.IQ:residence:IprAccess.end_dist

system.cpu0.IQ:residence:InstPrefetch.start_dist
system.cpu0.IQ:residence:InstPrefetch.samples            0                      
system.cpu0.IQ:residence:InstPrefetch.min_value            0                      
                               0            0                      
                               2            0                      
                               4            0                      
                               6            0                      
                               8            0                      
                              10            0                      
                              12            0                      
                              14            0                      
                              16            0                      
                              18            0                      
                              20            0                      
                              22            0                      
                              24            0                      
                              26            0                      
                              28            0                      
                              30            0                      
                              32            0                      
                              34            0                      
                              36            0                      
                              38            0                      
                              40            0                      
                              42            0                      
                              44            0                      
                              46            0                      
                              48            0                      
                              50            0                      
                              52            0                      
                              54            0                      
                              56            0                      
                              58            0                      
                              60            0                      
                              62            0                      
                              64            0                      
                              66            0                      
                              68            0                      
                              70            0                      
                              72            0                      
                              74            0                      
                              76            0                      
                              78            0                      
                              80            0                      
                              82            0                      
                              84            0                      
                              86            0                      
                              88            0                      
                              90            0                      
                              92            0                      
                              94            0                      
                              96            0                      
                              98            0                      
system.cpu0.IQ:residence:InstPrefetch.max_value            0                      
system.cpu0.IQ:residence:InstPrefetch.end_dist

system.cpu0.ISSUE:(null)_delay.start_dist 
system.cpu0.ISSUE:(null)_delay.samples           6720                      
system.cpu0.ISSUE:(null)_delay.min_value            1                      
                               0         6073   9037.20%   9037.20%
                               2          446    663.69%   9700.89%
                               4           97    144.35%   9845.24%
                               6           19     28.27%   9873.51%
                               8           73    108.63%   9982.14%
                              10            3      4.46%   9986.61%
                              12            3      4.46%   9991.07%
                              14            1      1.49%   9992.56%
                              16            2      2.98%   9995.54%
                              18            3      4.46%  10000.00%
                              20            0      0.00%  10000.00%
                              22            0      0.00%  10000.00%
                              24            0      0.00%  10000.00%
                              26            0      0.00%  10000.00%
                              28            0      0.00%  10000.00%
                              30            0      0.00%  10000.00%
                              32            0      0.00%  10000.00%
                              34            0      0.00%  10000.00%
                              36            0      0.00%  10000.00%
                              38            0      0.00%  10000.00%
                              40            0      0.00%  10000.00%
                              42            0      0.00%  10000.00%
                              44            0      0.00%  10000.00%
                              46            0      0.00%  10000.00%
                              48            0      0.00%  10000.00%
                              50            0      0.00%  10000.00%
                              52            0      0.00%  10000.00%
                              54            0      0.00%  10000.00%
                              56            0      0.00%  10000.00%
                              58            0      0.00%  10000.00%
                              60            0      0.00%  10000.00%
                              62            0      0.00%  10000.00%
                              64            0      0.00%  10000.00%
                              66            0      0.00%  10000.00%
                              68            0      0.00%  10000.00%
                              70            0      0.00%  10000.00%
                              72            0      0.00%  10000.00%
                              74            0      0.00%  10000.00%
                              76            0      0.00%  10000.00%
                              78            0      0.00%  10000.00%
                              80            0      0.00%  10000.00%
                              82            0      0.00%  10000.00%
                              84            0      0.00%  10000.00%
                              86            0      0.00%  10000.00%
                              88            0      0.00%  10000.00%
                              90            0      0.00%  10000.00%
                              92            0      0.00%  10000.00%
                              94            0      0.00%  10000.00%
                              96            0      0.00%  10000.00%
                              98            0      0.00%  10000.00%
system.cpu0.ISSUE:(null)_delay.max_value           19                      
system.cpu0.ISSUE:(null)_delay.end_dist

system.cpu0.ISSUE:IntAlu_delay.start_dist 
system.cpu0.ISSUE:IntAlu_delay.samples       59121797                      
system.cpu0.ISSUE:IntAlu_delay.min_value            0                      
                               0     51256630   8669.67%   8669.67%
                               2      4104995    694.33%   9364.00%
                               4      1358313    229.75%   9593.74%
                               6       595686    100.76%   9694.50%
                               8       349908     59.18%   9753.68%
                              10       235617     39.85%   9793.54%
                              12       192105     32.49%   9826.03%
                              14       283604     47.97%   9874.00%
                              16       210013     35.52%   9909.52%
                              18       227431     38.47%   9947.99%
                              20       141892     24.00%   9971.99%
                              22       158128     26.75%   9998.74%
                              24         7475      1.26%  10000.00%
                              26            0      0.00%  10000.00%
                              28            0      0.00%  10000.00%
                              30            0      0.00%  10000.00%
                              32            0      0.00%  10000.00%
                              34            0      0.00%  10000.00%
                              36            0      0.00%  10000.00%
                              38            0      0.00%  10000.00%
                              40            0      0.00%  10000.00%
                              42            0      0.00%  10000.00%
                              44            0      0.00%  10000.00%
                              46            0      0.00%  10000.00%
                              48            0      0.00%  10000.00%
                              50            0      0.00%  10000.00%
                              52            0      0.00%  10000.00%
                              54            0      0.00%  10000.00%
                              56            0      0.00%  10000.00%
                              58            0      0.00%  10000.00%
                              60            0      0.00%  10000.00%
                              62            0      0.00%  10000.00%
                              64            0      0.00%  10000.00%
                              66            0      0.00%  10000.00%
                              68            0      0.00%  10000.00%
                              70            0      0.00%  10000.00%
                              72            0      0.00%  10000.00%
                              74            0      0.00%  10000.00%
                              76            0      0.00%  10000.00%
                              78            0      0.00%  10000.00%
                              80            0      0.00%  10000.00%
                              82            0      0.00%  10000.00%
                              84            0      0.00%  10000.00%
                              86            0      0.00%  10000.00%
                              88            0      0.00%  10000.00%
                              90            0      0.00%  10000.00%
                              92            0      0.00%  10000.00%
                              94            0      0.00%  10000.00%
                              96            0      0.00%  10000.00%
                              98            0      0.00%  10000.00%
system.cpu0.ISSUE:IntAlu_delay.max_value           24                      
system.cpu0.ISSUE:IntAlu_delay.end_dist

system.cpu0.ISSUE:IntMult_delay.start_dist
system.cpu0.ISSUE:IntMult_delay.samples        210483                      
system.cpu0.ISSUE:IntMult_delay.min_value            0                      
                               0       162355   7713.45%   7713.45%
                               2        24378   1158.19%   8871.64%
                               4        11586    550.45%   9422.09%
                               6         3297    156.64%   9578.73%
                               8          656     31.17%   9609.90%
                              10         1150     54.64%   9664.53%
                              12          754     35.82%   9700.36%
                              14          513     24.37%   9724.73%
                              16           97      4.61%   9729.34%
                              18         1979     94.02%   9823.36%
                              20         2205    104.76%   9928.12%
                              22         1175     55.82%   9983.94%
                              24          338     16.06%  10000.00%
                              26            0      0.00%  10000.00%
                              28            0      0.00%  10000.00%
                              30            0      0.00%  10000.00%
                              32            0      0.00%  10000.00%
                              34            0      0.00%  10000.00%
                              36            0      0.00%  10000.00%
                              38            0      0.00%  10000.00%
                              40            0      0.00%  10000.00%
                              42            0      0.00%  10000.00%
                              44            0      0.00%  10000.00%
                              46            0      0.00%  10000.00%
                              48            0      0.00%  10000.00%
                              50            0      0.00%  10000.00%
                              52            0      0.00%  10000.00%
                              54            0      0.00%  10000.00%
                              56            0      0.00%  10000.00%
                              58            0      0.00%  10000.00%
                              60            0      0.00%  10000.00%
                              62            0      0.00%  10000.00%
                              64            0      0.00%  10000.00%
                              66            0      0.00%  10000.00%
                              68            0      0.00%  10000.00%
                              70            0      0.00%  10000.00%
                              72            0      0.00%  10000.00%
                              74            0      0.00%  10000.00%
                              76            0      0.00%  10000.00%
                              78            0      0.00%  10000.00%
                              80            0      0.00%  10000.00%
                              82            0      0.00%  10000.00%
                              84            0      0.00%  10000.00%
                              86            0      0.00%  10000.00%
                              88            0      0.00%  10000.00%
                              90            0      0.00%  10000.00%
                              92            0      0.00%  10000.00%
                              94            0      0.00%  10000.00%
                              96            0      0.00%  10000.00%
                              98            0      0.00%  10000.00%
system.cpu0.ISSUE:IntMult_delay.max_value           24                      
system.cpu0.ISSUE:IntMult_delay.end_dist

system.cpu0.ISSUE:IntDiv_delay.start_dist 
system.cpu0.ISSUE:IntDiv_delay.samples              0                      
system.cpu0.ISSUE:IntDiv_delay.min_value            0                      
                               0            0                      
                               2            0                      
                               4            0                      
                               6            0                      
                               8            0                      
                              10            0                      
                              12            0                      
                              14            0                      
                              16            0                      
                              18            0                      
                              20            0                      
                              22            0                      
                              24            0                      
                              26            0                      
                              28            0                      
                              30            0                      
                              32            0                      
                              34            0                      
                              36            0                      
                              38            0                      
                              40            0                      
                              42            0                      
                              44            0                      
                              46            0                      
                              48            0                      
                              50            0                      
                              52            0                      
                              54            0                      
                              56            0                      
                              58            0                      
                              60            0                      
                              62            0                      
                              64            0                      
                              66            0                      
                              68            0                      
                              70            0                      
                              72            0                      
                              74            0                      
                              76            0                      
                              78            0                      
                              80            0                      
                              82            0                      
                              84            0                      
                              86            0                      
                              88            0                      
                              90            0                      
                              92            0                      
                              94            0                      
                              96            0                      
                              98            0                      
system.cpu0.ISSUE:IntDiv_delay.max_value            0                      
system.cpu0.ISSUE:IntDiv_delay.end_dist

system.cpu0.ISSUE:FloatAdd_delay.start_dist
system.cpu0.ISSUE:FloatAdd_delay.samples         7754                      
system.cpu0.ISSUE:FloatAdd_delay.min_value            0                      
                               0         3996   5153.47%   5153.47%
                               2          156    201.19%   5354.66%
                               4            4      5.16%   5359.81%
                               6           23     29.66%   5389.48%
                               8           24     30.95%   5420.43%
                              10          572    737.68%   6158.11%
                              12          715    922.10%   7080.22%
                              14         1088   1403.15%   8483.36%
                              16         1175   1515.35%   9998.71%
                              18            1      1.29%  10000.00%
                              20            0      0.00%  10000.00%
                              22            0      0.00%  10000.00%
                              24            0      0.00%  10000.00%
                              26            0      0.00%  10000.00%
                              28            0      0.00%  10000.00%
                              30            0      0.00%  10000.00%
                              32            0      0.00%  10000.00%
                              34            0      0.00%  10000.00%
                              36            0      0.00%  10000.00%
                              38            0      0.00%  10000.00%
                              40            0      0.00%  10000.00%
                              42            0      0.00%  10000.00%
                              44            0      0.00%  10000.00%
[...]
system.cpu1.kern.mode_good_idle                     0                      
system.cpu1.kern.mode_good_interrupt                0                      
system.cpu1.kern.mode_switch_kernel             19486                      
system.cpu1.kern.mode_switch_user                 989                      
system.cpu1.kern.mode_switch_idle                   0                      
system.cpu1.kern.mode_switch_interrupt              0                      
system.cpu1.kern.mode_switch_good            0.096557                      
system.cpu1.kern.mode_switch_good_kernel     0.050703                      
system.cpu1.kern.mode_switch_good_user              1                      
system.cpu1.kern.mode_switch_good_idle   <err: div-0>                      
system.cpu1.kern.mode_switch_good_interrupt <err: div-0>                      
system.cpu1.kern.mode_ticks_kernel         1727422561     99.62%     99.62%
system.cpu1.kern.mode_ticks_user              6505584      0.38%    100.00%
system.cpu1.kern.mode_ticks_idle                    0      0.00%    100.00%
system.cpu1.kern.mode_ticks_interrupt               0      0.00%    100.00%
system.cpu1.kern.swap_context                    1901                      
system.cpu1.kern.syscall                          220                      
system.cpu1.kern.syscall_exit                       4      1.82%      1.82%
system.cpu1.kern.syscall_fork                       3      1.36%      3.18%
system.cpu1.kern.syscall_read                      19      8.64%     11.82%
system.cpu1.kern.syscall_write                      3      1.36%     13.18%
system.cpu1.kern.syscall_close                     15      6.82%     20.00%
system.cpu1.kern.syscall_obreak                    20      9.09%     29.09%
system.cpu1.kern.syscall_lseek                      5      2.27%     31.36%
system.cpu1.kern.syscall_getpid                    13      5.91%     37.27%
system.cpu1.kern.syscall_setuid                     1      0.45%     37.73%
system.cpu1.kern.syscall_getuid                     3      1.36%     39.09%
system.cpu1.kern.syscall_kill                       4      1.82%     40.91%
system.cpu1.kern.syscall_open                      29     13.18%     54.09%
system.cpu1.kern.syscall_getgid                     3      1.36%     55.45%
system.cpu1.kern.syscall_sigprocmask                7      3.18%     58.64%
system.cpu1.kern.syscall_ioctl                      3      1.36%     60.00%
system.cpu1.kern.syscall_readlink                   1      0.45%     60.45%
system.cpu1.kern.syscall_execve                     3      1.36%     61.82%
system.cpu1.kern.syscall_pre_F64_stat              15      6.82%     68.64%
system.cpu1.kern.syscall_mmap                      26     11.82%     80.45%
system.cpu1.kern.syscall_munmap                     5      2.27%     82.73%
system.cpu1.kern.syscall_mprotect                   8      3.64%     86.36%
system.cpu1.kern.syscall_gethostname                1      0.45%     86.82%
system.cpu1.kern.syscall_dup2                       2      0.91%     87.73%
system.cpu1.kern.syscall_pre_F64_fstat             12      5.45%     93.18%
system.cpu1.kern.syscall_fcntl                      3      1.36%     94.55%
system.cpu1.kern.syscall_poll                       7      3.18%     97.73%
system.cpu1.kern.syscall_sigreturn                  3      1.36%     99.09%
system.cpu1.kern.syscall_setgid                     1      0.45%     99.55%
system.cpu1.kern.syscall_getrlimit                  1      0.45%    100.00%
system.cpu1.numCycles                      1733669620                      
system.cpu1inst_class_dist.start_dist
                   All ops ready            0      0.00%           
                One op not ready            0      0.00%           
           None rdy, mult chains            0      0.00%           
           None rdy, one chained            0      0.00%           
        None rdy, all self-timed            0      0.00%           
system.cpu1inst_class_dist.end_dist
system.htbus.addr_idle_cycles              1732928595                      
system.htbus.addr_idle_fraction              0.999422                      
system.htbus.addr_queued                    36.807187                      
system.htbus.addr_queued_cycles               5064853                      
system.htbus.addr_requests                     137605                      
system.htbus.bus_blocked                            0                      
system.htbus.bus_blocked_cycles                     0                      
system.htbus.bus_blocked_fraction                   0                      
system.htbus.data_idle_cycles              1732827368                      
system.htbus.data_idle_fraction              0.999364                      
system.htbus.data_queued                            1                      
system.htbus.data_queued_cycles                 10429                      
system.htbus.data_requests                      10429                      
system.htbus.null_grants                            0                      
system.kern.fnCalls                                 0                      
system.l2.avg_blocked_cycles_no_mshrs    <err: div-0>                      
system.l2.avg_blocked_cycles_no_targets  <err: div-0>                      
system.l2.avg_refs                           2.282265                      
system.l2.blocked_no_mshrs                          0                      
system.l2.blocked_no_targets                        0                      
system.l2.blocked_cycles_no_mshrs                   0                      
system.l2.blocked_cycles_no_targets                 0                      
system.l2.cache_copies                              0                      
system.l2.demand_accesses                     2904037                      
system.l2.demand_avg_miss_latency           68.368424                      
system.l2.demand_avg_mshr_miss_latency      38.434816                      
system.l2.demand_hits                         1859301                      
system.l2.demand_miss_latency                71426954                      
system.l2.demand_miss_rate                   0.359753                      
system.l2.demand_misses                       1044736                      
system.l2.demand_mshr_hits                          1                      
system.l2.demand_mshr_miss_latency           40154198                      
system.l2.demand_mshr_miss_rate              0.359753                      
system.l2.demand_mshr_misses                  1044735                      
system.l2.fast_writes                               0                      
system.l2.mshr_cap_events                           0                      
system.l2.no_allocate_misses                        0                      
system.l2.overall_accesses                    3538879                      
system.l2.overall_avg_miss_latency          68.350236                      
system.l2.overall_avg_mshr_miss_latency     38.434816                      
system.l2.overall_avg_mshr_uncacheable_latency   178.663823                      
system.l2.overall_hits                        2493865                      
system.l2.overall_miss_latency               71426954                      
system.l2.overall_miss_rate                  0.295295                      
system.l2.overall_misses                      1045014                      
system.l2.overall_mshr_hits                         1                      
system.l2.overall_mshr_miss_latency          40154198                      
system.l2.overall_mshr_miss_rate             0.295216                      
system.l2.overall_mshr_misses                 1044735                      
system.l2.overall_mshr_uncacheable_latency      5926279                      
system.l2.overall_mshr_uncacheable_misses        33170                      
system.l2.prefetcher.num_hwpf_already_in_cache            0                      
system.l2.prefetcher.num_hwpf_already_in_mshr            0                      
system.l2.prefetcher.num_hwpf_already_in_prefetcher            0                      
system.l2.prefetcher.num_hwpf_evicted               0                      
system.l2.prefetcher.num_hwpf_identified            0                      
system.l2.prefetcher.num_hwpf_issued                0                      
system.l2.prefetcher.num_hwpf_removed_MSHR_hit            0                      
system.l2.prefetcher.num_hwpf_span_page             0                      
system.l2.prefetcher.num_hwpf_squashed_from_miss            0                      
system.l2.readEx_accesses                      381400                      
system.l2.readEx_avg_miss_latency           65.217952                      
system.l2.readEx_avg_mshr_miss_latency      35.454430                      
system.l2.readEx_hits                          230853                      
system.l2.readEx_miss_latency                 9818367                      
system.l2.readEx_miss_rate                   0.394722                      
system.l2.readEx_misses                        150547                      
system.l2.readEx_mshr_miss_latency            5337558                      
system.l2.readEx_mshr_miss_rate              0.394722                      
system.l2.readEx_mshr_misses                   150547                      
system.l2.read_accesses                       2904037                      
system.l2.read_avg_miss_latency             68.368424                      
system.l2.read_avg_mshr_miss_latency        38.434816                      
system.l2.read_avg_mshr_uncacheable_latency   200.515600                      
system.l2.read_hits                           1859301                      
system.l2.read_miss_latency                  71426954                      
system.l2.read_miss_rate                     0.359753                      
system.l2.read_misses                         1044736                      
system.l2.read_mshr_hits                            1                      
system.l2.read_mshr_miss_latency             40154198                      
system.l2.read_mshr_miss_rate                0.359753                      
system.l2.read_mshr_misses                    1044735                      
system.l2.read_mshr_uncacheable                 11763                      
system.l2.read_mshr_uncacheable_latency       2358665                      
system.l2.replacements                        1160485                      
system.l2.sampled_refs                        1192749                      
system.l2.soft_prefetch_mshr_full                   0                      
system.l2.tagsinuse                      32065.268508                      
system.l2.total_refs                          2722169                      
system.l2.warmup_cycle                        3615703                      
system.l2.write_avg_mshr_uncacheable_latency   166.656421                      
system.l2.write_mshr_uncacheable                21407                      
system.l2.write_mshr_uncacheable_latency      3567614                      
system.l2.writeback_accesses                   634842                      
system.l2.writeback_hits                       634564                      
system.l2.writeback_miss_rate                0.000438                      
system.l2.writeback_misses                        278                      
system.l2.writeback_mshr_miss_rate           0.000438                      
system.l2.writeback_mshr_misses                   278                      
system.l2.writebacks                           152226                      
system.l2bus.addr_idle_cycles              1729844618                      
system.l2bus.addr_idle_fraction              0.997644                      
system.l2bus.addr_queued                     4.059545                      
system.l2bus.addr_queued_cycles              16572497                      
system.l2bus.addr_requests                    4082353                      
system.l2bus.bus_blocked                          317                      
system.l2bus.bus_blocked_cycles                133085                      
system.l2bus.bus_blocked_fraction            0.000077                      
system.l2bus.data_idle_cycles              1729947527                      
system.l2bus.data_idle_fraction              0.997703                      
system.l2bus.data_queued                     1.022246                      
system.l2bus.data_queued_cycles               3400119                      
system.l2bus.data_requests                    3326126                      
system.l2bus.null_grants                        37276                      
system.membus.addr_idle_cycles             1732417027                      
system.membus.addr_idle_fraction             0.999127                      
system.membus.addr_queued                   26.949808                      
system.membus.addr_queued_cycles             40751452                      
system.membus.addr_requests                   1512124                      
system.membus.bus_blocked                           0                      
system.membus.bus_blocked_cycles                    0                      
system.membus.bus_blocked_fraction                  0                      
system.membus.data_idle_cycles             1728284900                      
system.membus.data_idle_fraction             0.996744                      
system.membus.data_queued                    2.178624                      
system.membus.data_queued_cycles              2630188                      
system.membus.data_requests                   1207270                      
system.membus.null_grants                           0                      
system.pcibus.addr_idle_cycles             1732606857                      
system.pcibus.addr_idle_fraction             0.999237                      
system.pcibus.addr_queued                  556.307525                      
system.pcibus.addr_queued_cycles             76550697                      
system.pcibus.addr_requests                    137605                      
system.pcibus.bus_blocked                        3424                      
system.pcibus.bus_blocked_cycles                78749                      
system.pcibus.bus_blocked_fraction           0.000045                      
system.pcibus.data_idle_cycles             1731689634                      
system.pcibus.data_idle_fraction             0.998708                      
system.pcibus.data_queued                    3.218142                      
system.pcibus.data_queued_cycles                33562                      
system.pcibus.data_requests                     10429                      
system.pcibus.null_grants                           0                      
system.ram.accesses                           1402779                      
system.ram.bytes_requested                          0                      
system.ram.bytes_sent                               0                      
system.ram.compressed_responses                     0                      
system.tsunami.etherdev0.coalescedRxDesc <err: div-0>                      
system.tsunami.etherdev0.coalescedRxIdle <err: div-0>                      
system.tsunami.etherdev0.coalescedRxOk   <err: div-0>                      
system.tsunami.etherdev0.coalescedRxOrn  <err: div-0>                      
system.tsunami.etherdev0.coalescedSwi    <err: div-0>                      
system.tsunami.etherdev0.coalescedTotal  <err: div-0>                      
system.tsunami.etherdev0.coalescedTxDesc <err: div-0>                      
system.tsunami.etherdev0.coalescedTxIdle <err: div-0>                      
system.tsunami.etherdev0.coalescedTxOk   <err: div-0>                      
system.tsunami.etherdev0.descDMAReads               0                      
system.tsunami.etherdev0.descDMAWrites              0                      
system.tsunami.etherdev0.descDmaReadBytes            0                      
system.tsunami.etherdev0.descDmaWriteBytes            0                      
system.tsunami.etherdev0.dma.avg_large_transaction_latency <err: div-0>                      
system.tsunami.etherdev0.dma.avg_small_transaction_latency <err: div-0>                      
system.tsunami.etherdev0.dma.avg_transaction_latency <err: div-0>                      
system.tsunami.etherdev0.dma.bytes_transfered            0                      
system.tsunami.etherdev0.dma.large_transaction_latency            0                      
system.tsunami.etherdev0.dma.large_transactions            0                      
system.tsunami.etherdev0.dma.packets_sent            0                      
system.tsunami.etherdev0.dma.requests               0                      
system.tsunami.etherdev0.dma.round_trip_latency <err: div-0>                      
system.tsunami.etherdev0.dma.small_transaction_latency            0                      
system.tsunami.etherdev0.dma.small_transactions            0                      
system.tsunami.etherdev0.dma.total_cycle_latency            0                      
system.tsunami.etherdev0.dma.transaction_latency            0                      
system.tsunami.etherdev0.droppedPackets             0                      
system.tsunami.etherdev0.postedInterrupts            0                      
system.tsunami.etherdev0.postedRxDesc               0                      
system.tsunami.etherdev0.postedRxIdle               0                      
system.tsunami.etherdev0.postedRxOk                 0                      
system.tsunami.etherdev0.postedRxOrn                0                      
system.tsunami.etherdev0.postedSwi                  0                      
system.tsunami.etherdev0.postedTxDesc               0                      
system.tsunami.etherdev0.postedTxIdle               0                      
system.tsunami.etherdev0.postedTxOk                 0                      
system.tsunami.etherdev0.totalRxDesc                0                      
system.tsunami.etherdev0.totalRxIdle                0                      
system.tsunami.etherdev0.totalRxOk                  0                      
system.tsunami.etherdev0.totalRxOrn                 0                      
system.tsunami.etherdev0.totalSwi                   0                      
system.tsunami.etherdev0.totalTxDesc                0                      
system.tsunami.etherdev0.totalTxIdle                0                      
system.tsunami.etherdev0.totalTxOk                  0                      
system.tsunami.ide.dma.avg_large_transaction_latency  2847.220729                      
system.tsunami.ide.dma.avg_small_transaction_latency   228.038278                      
system.tsunami.ide.dma.avg_transaction_latency  2097.345205                      
system.tsunami.ide.dma.bytes_transfered       3518856                      
system.tsunami.ide.dma.large_transaction_latency      1483402                      
system.tsunami.ide.dma.large_transactions          521                      
system.tsunami.ide.dma.packets_sent             54993                      
system.tsunami.ide.dma.requests                   730                      
system.tsunami.ide.dma.round_trip_latency  1606.113524                      
system.tsunami.ide.dma.small_transaction_latency        47660                      
system.tsunami.ide.dma.small_transactions          209                      
system.tsunami.ide.dma.total_cycle_latency     88325001                      
system.tsunami.ide.dma.transaction_latency      1531062                      

---------- End Simulation Statistics   ----------
