system.cpu0.POWER.DYNAMIC:bpred_block_average     0.253454                      
system.cpu0.POWER.DYNAMIC:dcache_block_average     0.666086                      
system.cpu0.POWER.DYNAMIC:dtlb_block_average     0.007716                      
system.cpu0.POWER.DYNAMIC:fpalu_block_average     0.191681                      
system.cpu0.POWER.DYNAMIC:fpmap_block_average     0.021895                      
system.cpu0.POWER.DYNAMIC:fpmul_block_average     0.191664                      
system.cpu0.POWER.DYNAMIC:fpq_block_average     0.115354                      
system.cpu0.POWER.DYNAMIC:fpreg_block_average     0.073253                      
system.cpu0.POWER.DYNAMIC:icache_block_average     0.486788                      
system.cpu0.POWER.DYNAMIC:intalu_block_average     0.606996                      
system.cpu0.POWER.DYNAMIC:intmap_block_average     0.029904                      
system.cpu0.POWER.DYNAMIC:intq_block_average     0.247349                      
system.cpu0.POWER.DYNAMIC:intreg_block_average     0.234613                      
system.cpu0.POWER.DYNAMIC:itlb_block_average     0.005639                      
system.cpu0.POWER.DYNAMIC:lsq_block_average     0.088187                      
3.220579


---------- Begin Simulation Statistics ----------
host_inst_rate                                  26529                      
host_mem_usage                                 194144                      
host_seconds                                  5309.66                      
host_tick_rate                                 184038                      
sim_freq                                    400000000                      
sim_insts                                   140858235                      
sim_seconds                                  2.442945                      
sim_ticks                                   977178040                      
system.cpu0.COM:IPB                          4.957255                      
system.cpu0.COM:IPC                          0.144148                      
system.cpu0.COM:branches                     28414561                      
system.cpu0.COM:bw_lim_avg               <err: div-0>                      
system.cpu0.COM:bw_lim_events                       0                      
system.cpu0.COM:bw_lim_rate                    0.0000                      
system.cpu0.COM:bw_lim_stdev_0_mean      <err: div-0>                      
system.cpu0.COM:bw_lim_stdev_0_stdev     <err: div-0>                      
**Ignore: system.cpu0.COM:bw_lim_stdev_0_TOT       0.0000                      
system.cpu0.COM:bw_limited                          0                      
system.cpu0.COM:committed_per_cycle.start_dist
system.cpu0.COM:committed_per_cycle.samples     47012098                      
system.cpu0.COM:committed_per_cycle.min_value            0                      
                               0       403306     85.79%           
                               1     10076413   2143.37%           
                               2      5906839   1256.45%           
                               3      3321138    706.44%           
                               4     27304402   5807.95%           
system.cpu0.COM:committed_per_cycle.max_value            4                      
system.cpu0.COM:committed_per_cycle.end_dist

system.cpu0.COM:count                       140858235                      
system.cpu0.COM:loads                        17352534                      
system.cpu0.COM:membars                        308275                      
system.cpu0.COM:refs                         28346870                      
system.cpu0.COM:stores                       10994336                      
system.cpu0.COM:swp_count                      212878                      
system.cpu0.DDQ:count                      9344804623                      
system.cpu0.DDQ:rate                               10                      
system.cpu0.DIS:chain_creation.start_dist
     Inst has no outstanding IDEPS            0      0.00%           
      IDEP chain reached max depth            0      0.00%           
                    Inst is a load            0      0.00%           
  Chain has multiple chained IDEPS            0      0.00%           
system.cpu0.DIS:chain_creation.end_dist
system.cpu0.DIS:chain_head_frac                     0                      
system.cpu0.DIS:chain_heads                         0                      
system.cpu0.DIS:chains_insuf                        0                      
system.cpu0.DIS:chains_insuf_rate                   0                      
system.cpu0.DIS:count                       162616511                      
system.cpu0.DIS:insufficient_chains                 0                      
system.cpu0.DIS:mod_n_stall_avg_free     <err: div-0>                      
system.cpu0.DIS:mod_n_stall_frac                    0                      
system.cpu0.DIS:mod_n_stall_free                    0                      
system.cpu0.DIS:mod_n_stalls                        0                      
system.cpu0.DIS:one_rdy_insts                       0                      
system.cpu0.DIS:one_rdy_ratio            <err: div-0>                      
system.cpu0.DIS:op_count                    196802376                      
system.cpu0.DIS:op_rate                      0.201399                      
system.cpu0.DIS:rate                         0.166414                      
system.cpu0.DIS:second_choice_clust                 0                      
system.cpu0.DIS:second_choice_stall                 0                      
system.cpu0.DIS:serialize_stall_cycles        9562341                      
system.cpu0.DIS:serializing_insts              296676                      
system.cpu0.DIS:two_input_insts                     0                      
system.cpu0.DIS:two_input_ratio                     0                      
system.cpu0.FETCH:branch_count               44581212                      
system.cpu0.FETCH:branch_rate                0.045622                      
system.cpu0.FETCH:chance_pct                        1                      
system.cpu0.FETCH:chances                    64072849                      
system.cpu0.FETCH:choice                     64072849                      
system.cpu0.FETCH:count                     225852450                      
system.cpu0.FETCH:decisions                  64072849                      
system.cpu0.FETCH:idle_cycles               913105192                      
system.cpu0.FETCH:idle_icache_blocked_cycles            0                      
system.cpu0.FETCH:idle_rate                     93.44                      
system.cpu0.FETCH:prio_changes                      0                      
system.cpu0.FETCH:rate                       0.231127                      
system.cpu0.FETCH:rate_dist.start_dist    
system.cpu0.FETCH:rate_dist.samples          64072849                      
system.cpu0.FETCH:rate_dist.min_value               0                      
                               0       198795     31.03%           
                               1      5500042    858.40%           
                               2      2922581    456.13%           
                               3      7298478   1139.09%           
                               4     48152953   7515.34%           
system.cpu0.FETCH:rate_dist.max_value               4                      
system.cpu0.FETCH:rate_dist.end_dist

system.cpu0.FETCH:rate_dist_0.start_dist  
system.cpu0.FETCH:rate_dist_0.samples        64072849                      
system.cpu0.FETCH:rate_dist_0.min_value             0                      
                               0       198795     31.03%           
                               1      5500042    858.40%           
                               2      2922581    456.13%           
                               3      7298478   1139.09%           
                               4     48152953   7515.34%           
system.cpu0.FETCH:rate_dist_0.max_value             4                      
system.cpu0.FETCH:rate_dist_0.end_dist

system.cpu0.IFQ:count                      3896299236                      
system.cpu0.IFQ:full_count                  111805333                      
system.cpu0.IFQ:full_rate                   11.441654                      
system.cpu0.IFQ:latency                     23.960047                      
system.cpu0.IFQ:occupancy                    3.987297                      
system.cpu0.IFQ:qfull_iq_occ               5493250407                      
system.cpu0.IFQ:qfull_iq_occ_dist_0.start_dist
system.cpu0.IFQ:qfull_iq_occ_dist_0.samples     93283489                      
system.cpu0.IFQ:qfull_iq_occ_dist_0.min_value            0                      
                               0      5861633    628.37%           
                              10       775190     83.10%           
                              20       649428     69.62%           
                              30       754655     80.90%           
                              40       967942    103.76%           
                              50       898882     96.36%           
                              60     83375759   8937.89%           
system.cpu0.IFQ:qfull_iq_occ_dist_0.max_value           64                      
system.cpu0.IFQ:qfull_iq_occ_dist_0.end_dist

system.cpu0.IFQ:qfull_rob_occ              8532446474                      
system.cpu0.IFQ:qfull_rob_occ_dist_0.start_dist
system.cpu0.IFQ:qfull_rob_occ_dist_0.samples     93283489                      
system.cpu0.IFQ:qfull_rob_occ_dist_0.min_value            1                      
                               0      1307299    140.14%           
                              10      1759096    188.58%           
                              20      1184933    127.02%           
                              30       472029     50.60%           
                              40       284321     30.48%           
                              50       199228     21.36%           
                              60      5689643    609.93%           
                              70      1452006    155.66%           
                              80       669996     71.82%           
                              90     75562510   8100.31%           
                             100      1023766    109.75%           
                             110      1439653    154.33%           
                             120      2239009    240.02%           
                             130            0      0.00%           
system.cpu0.IFQ:qfull_rob_occ_dist_0.max_value          128                      
system.cpu0.IFQ:qfull_rob_occ_dist_0.end_dist

system.cpu0.IQ:cap_events                           0                      
system.cpu0.IQ:cap_inst                             0                      
system.cpu0.IQ:residence:(null).start_dist
system.cpu0.IQ:residence:(null).samples          9547                      
system.cpu0.IQ:residence:(null).min_value            1                      
                               0         8589   8996.54%   8996.54%
                               2          647    677.70%   9674.24%
                               4          157    164.45%   9838.69%
                               6           29     30.38%   9869.07%
                               8          114    119.41%   9988.48%
                              10            2      2.09%   9990.57%
                              12            1      1.05%   9991.62%
                              14            1      1.05%   9992.67%
                              16            4      4.19%   9996.86%
                              18            1      1.05%   9997.91%
                              20            2      2.09%  10000.00%
                              22            0      0.00%  10000.00%
                              24            0      0.00%  10000.00%
                              26            0      0.00%  10000.00%
                              28            0      0.00%  10000.00%
                              30            0      0.00%  10000.00%
                              32            0      0.00%  10000.00%
                              34            0      0.00%  10000.00%
                              36            0      0.00%  10000.00%
                              38            0      0.00%  10000.00%
                              40            0      0.00%  10000.00%
                              42            0      0.00%  10000.00%
                              44            0      0.00%  10000.00%
                              46            0      0.00%  10000.00%
                              48            0      0.00%  10000.00%
                              50            0      0.00%  10000.00%
                              52            0      0.00%  10000.00%
                              54            0      0.00%  10000.00%
                              56            0      0.00%  10000.00%
                              58            0      0.00%  10000.00%
                              60            0      0.00%  10000.00%
                              62            0      0.00%  10000.00%
                              64            0      0.00%  10000.00%
                              66            0      0.00%  10000.00%
                              68            0      0.00%  10000.00%
                              70            0      0.00%  10000.00%
                              72            0      0.00%  10000.00%
                              74            0      0.00%  10000.00%
                              76            0      0.00%  10000.00%
                              78            0      0.00%  10000.00%
                              80            0      0.00%  10000.00%
                              82            0      0.00%  10000.00%
                              84            0      0.00%  10000.00%
                              86            0      0.00%  10000.00%
                              88            0      0.00%  10000.00%
                              90            0      0.00%  10000.00%
                              92            0      0.00%  10000.00%
                              94            0      0.00%  10000.00%
                              96            0      0.00%  10000.00%
                              98            0      0.00%  10000.00%
system.cpu0.IQ:residence:(null).max_value           21                      
system.cpu0.IQ:residence:(null).end_dist

system.cpu0.IQ:residence:IntAlu.start_dist
system.cpu0.IQ:residence:IntAlu.samples     117799640                      
system.cpu0.IQ:residence:IntAlu.min_value            1                      
                               0     31667650   2688.26%   2688.26%
                               2     32092765   2724.35%   5412.62%
                               4      6536666    554.90%   5967.51%
                               6      5168040    438.71%   6406.23%
                               8      4120433    349.78%   6756.01%
                              10      2756064    233.96%   6989.97%
                              12      2608117    221.40%   7211.37%
                              14      4215174    357.83%   7569.20%
                              16      4269501    362.44%   7931.64%
                              18      2726625    231.46%   8163.10%
                              20      2695508    228.82%   8391.92%
                              22      3285275    278.89%   8670.81%
                              24      1940526    164.73%   8835.54%
                              26       999578     84.85%   8920.39%
                              28       629157     53.41%   8973.80%
                              30       619307     52.57%   9026.38%
                              32       550853     46.76%   9073.14%
                              34       448535     38.08%   9111.21%
                              36       539802     45.82%   9157.04%
                              38       495918     42.10%   9199.14%
                              40       425233     36.10%   9235.23%
                              42       329828     28.00%   9263.23%
                              44       344797     29.27%   9292.50%
                              46       297588     25.26%   9317.77%
                              48       243946     20.71%   9338.47%
                              50       236176     20.05%   9358.52%
                              52       240885     20.45%   9378.97%
                              54       248230     21.07%   9400.04%
                              56       107811      9.15%   9409.20%
                              58       131262     11.14%   9420.34%
                              60       115223      9.78%   9430.12%
                              62       206046     17.49%   9447.61%
                              64       120774     10.25%   9457.86%
                              66       101638      8.63%   9466.49%
                              68       107803      9.15%   9475.64%
                              70        69875      5.93%   9481.57%
                              72        81854      6.95%   9488.52%
                              74        64788      5.50%   9494.02%
                              76        88383      7.50%   9501.53%
                              78        99569      8.45%   9509.98%
                              80        54625      4.64%   9514.62%
                              82        52909      4.49%   9519.11%
                              84        51671      4.39%   9523.49%
                              86        56950      4.83%   9528.33%
                              88        64829      5.50%   9533.83%
                              90        75429      6.40%   9540.23%
                              92        38737      3.29%   9543.52%
                              94        47567      4.04%   9547.56%
                              96        37715      3.20%   9550.76%
                              98        67786      5.75%   9556.52%
system.cpu0.IQ:residence:IntAlu.overflows      5224219                      
system.cpu0.IQ:residence:IntAlu.max_value        20546                      
system.cpu0.IQ:residence:IntAlu.end_dist

system.cpu0.IQ:residence:IntMult.start_dist
system.cpu0.IQ:residence:IntMult.samples       386093                      
system.cpu0.IQ:residence:IntMult.min_value            1                      
                               0         6728    174.26%    174.26%
                               2         4790    124.06%    298.32%
                               4        10501    271.98%    570.30%
                               6         7162    185.50%    755.80%
                               8         8124    210.42%    966.22%
                              10         7801    202.05%   1168.27%
                              12         5820    150.74%   1319.01%
                              14         8014    207.57%   1526.58%
                              16         8485    219.77%   1746.34%
                              18        18575    481.10%   2227.44%
                              20        91066   2358.65%   4586.10%
                              22       119735   3101.20%   7687.29%
                              24        48960   1268.09%   8955.38%
                              26         3774     97.75%   9053.13%
                              28          359      9.30%   9062.43%
                              30         3329     86.22%   9148.65%
                              32         2999     77.68%   9226.33%
                              34         2983     77.26%   9303.59%
                              36         3473     89.95%   9393.54%
                              38         2409     62.39%   9455.93%
                              40         9590    248.39%   9704.32%
                              42         1175     30.43%   9734.75%
                              44          286      7.41%   9742.16%
                              46          122      3.16%   9745.32%
                              48          437     11.32%   9756.64%
                              50          220      5.70%   9762.34%
                              52          376      9.74%   9772.08%
                              54          492     12.74%   9784.82%
                              56          715     18.52%   9803.34%
                              58           92      2.38%   9805.72%
                              60           24      0.62%   9806.34%
                              62           53      1.37%   9807.71%
                              64           33      0.85%   9808.57%
                              66           81      2.10%   9810.67%
                              68          104      2.69%   9813.36%
                              70          396     10.26%   9823.62%
                              72          291      7.54%   9831.15%
                              74          313      8.11%   9839.26%
                              76           85      2.20%   9841.46%
                              78           87      2.25%   9843.72%
                              80           82      2.12%   9845.84%
                              82           98      2.54%   9848.38%
                              84           40      1.04%   9849.41%
                              86            8      0.21%   9849.62%
                              88           44      1.14%   9850.76%
                              90           22      0.57%   9851.33%
                              92            9      0.23%   9851.56%
                              94           12      0.31%   9851.88%
                              96            5      0.13%   9852.00%
                              98            9      0.23%   9852.24%
system.cpu0.IQ:residence:IntMult.overflows         5705                      
system.cpu0.IQ:residence:IntMult.max_value          729                      
system.cpu0.IQ:residence:IntMult.end_dist

system.cpu0.IQ:residence:IntDiv.start_dist
system.cpu0.IQ:residence:IntDiv.samples             0                      
system.cpu0.IQ:residence:IntDiv.min_value            0                      
                               0            0                      
                               2            0                      
                               4            0                      
                               6            0                      
                               8            0                      
                              10            0                      
                              12            0                      
                              14            0                      
                              16            0                      
                              18            0                      
                              20            0                      
                              22            0                      
                              24            0                      
                              26            0                      
                              28            0                      
                              30            0                      
                              32            0                      
                              34            0                      
                              36            0                      
                              38            0                      
                              40            0                      
                              42            0                      
                              44            0                      
                              46            0                      
                              48            0                      
                              50            0                      
                              52            0                      
                              54            0                      
                              56            0                      
                              58            0                      
                              60            0                      
                              62            0                      
                              64            0                      
                              66            0                      
                              68            0                      
                              70            0                      
                              72            0                      
                              74            0                      
                              76            0                      
                              78            0                      
                              80            0                      
                              82            0                      
                              84            0                      
                              86            0                      
                              88            0                      
                              90            0                      
                              92            0                      
                              94            0                      
                              96            0                      
                              98            0                      
system.cpu0.IQ:residence:IntDiv.max_value            0                      
system.cpu0.IQ:residence:IntDiv.end_dist

system.cpu0.IQ:residence:FloatAdd.start_dist
system.cpu0.IQ:residence:FloatAdd.samples        10010                      
system.cpu0.IQ:residence:FloatAdd.min_value            1                      
                               0          124    123.88%    123.88%
                               2          211    210.79%    334.67%
                               4          161    160.84%    495.50%
                               6         2400   2397.60%   2893.11%
                               8           41     40.96%   2934.07%
                              10          520    519.48%   3453.55%
                              12          884    883.12%   4336.66%
                              14          405    404.60%   4741.26%
                              16         2433   2430.57%   7171.83%
                              18            1      1.00%   7172.83%
                              20            2      2.00%   7174.83%
                              22            0      0.00%   7174.83%
                              24            0      0.00%   7174.83%
                              26            2      2.00%   7176.82%
                              28            0      0.00%   7176.82%
                              30            1      1.00%   7177.82%
                              32            4      4.00%   7181.82%
                              34           40     39.96%   7221.78%
                              36         1915   1913.09%   9134.87%
                              38          859    858.14%   9993.01%
                              40            0      0.00%   9993.01%
                              42            0      0.00%   9993.01%
                              44            0      0.00%   9993.01%
                              46            0      0.00%   9993.01%
                              48            0      0.00%   9993.01%
                              50            0      0.00%   9993.01%
                              52            0      0.00%   9993.01%
                              54            0      0.00%   9993.01%
                              56            1      1.00%   9994.01%
                              58            0      0.00%   9994.01%
                              60            0      0.00%   9994.01%
                              62            0      0.00%   9994.01%
                              64            0      0.00%   9994.01%
                              66            0      0.00%   9994.01%
                              68            0      0.00%   9994.01%
                              70            0      0.00%   9994.01%
                              72            0      0.00%   9994.01%
                              74            0      0.00%   9994.01%
                              76            0      0.00%   9994.01%
                              78            1      1.00%   9995.00%
                              80            0      0.00%   9995.00%
                              82            0      0.00%   9995.00%
                              84            4      4.00%   9999.00%
                              86            0      0.00%   9999.00%
                              88            0      0.00%   9999.00%
                              90            0      0.00%   9999.00%
                              92            0      0.00%   9999.00%
                              94            1      1.00%  10000.00%
                              96            0      0.00%  10000.00%
                              98            0      0.00%  10000.00%
system.cpu0.IQ:residence:FloatAdd.max_value           95                      
system.cpu0.IQ:residence:FloatAdd.end_dist

system.cpu0.IQ:residence:FloatCmp.start_dist
system.cpu0.IQ:residence:FloatCmp.samples            0                      
system.cpu0.IQ:residence:FloatCmp.min_value            0                      
                               0            0                      
                               2            0                      
                               4            0                      
                               6            0                      
                               8            0                      
                              10            0                      
                              12            0                      
                              14            0                      
                              16            0                      
                              18            0                      
                              20            0                      
                              22            0                      
                              24            0                      
                              26            0                      
                              28            0                      
                              30            0                      
                              32            0                      
                              34            0                      
                              36            0                      
                              38            0                      
                              40            0                      
                              42            0                      
                              44            0                      
                              46            0                      
                              48            0                      
                              50            0                      
                              52            0                      
                              54            0                      
                              56            0                      
                              58            0                      
                              60            0                      
                              62            0                      
                              64            0                      
                              66            0                      
                              68            0                      
                              70            0                      
                              72            0                      
                              74            0                      
                              76            0                      
                              78            0                      
                              80            0                      
                              82            0                      
                              84            0                      
                              86            0                      
                              88            0                      
                              90            0                      
                              92            0                      
                              94            0                      
                              96            0                      
                              98            0                      
system.cpu0.IQ:residence:FloatCmp.max_value            0                      
system.cpu0.IQ:residence:FloatCmp.end_dist

system.cpu0.IQ:residence:FloatCvt.start_dist
system.cpu0.IQ:residence:FloatCvt.samples            0                      
system.cpu0.IQ:residence:FloatCvt.min_value            0                      
                               0            0                      
                               2            0                      
                               4            0                      
                               6            0                      
                               8            0                      
                              10            0                      
                              12            0                      
                              14            0                      
                              16            0                      
                              18            0                      
                              20            0                      
                              22            0                      
                              24            0                      
                              26            0                      
                              28            0                      
                              30            0                      
                              32            0                      
                              34            0                      
                              36            0                      
                              38            0                      
                              40            0                      
                              42            0                      
                              44            0                      
                              46            0                      
                              48            0                      
                              50            0                      
                              52            0                      
                              54            0                      
                              56            0                      
                              58            0                      
                              60            0                      
                              62            0                      
                              64            0                      
                              66            0                      
                              68            0                      
                              70            0                      
                              72            0                      
                              74            0                      
                              76            0                      
                              78            0                      
                              80            0                      
                              82            0                      
                              84            0                      
                              86            0                      
                              88            0                      
                              90            0                      
                              92            0                      
                              94            0                      
                              96            0                      
                              98            0                      
system.cpu0.IQ:residence:FloatCvt.max_value            0                      
system.cpu0.IQ:residence:FloatCvt.end_dist

system.cpu0.IQ:residence:FloatMult.start_dist
system.cpu0.IQ:residence:FloatMult.samples            3                      
system.cpu0.IQ:residence:FloatMult.min_value            5                      
                               0            0      0.00%      0.00%
                               2            0      0.00%      0.00%
                               4            1   3333.33%   3333.33%
                               6            0      0.00%   3333.33%
                               8            0      0.00%   3333.33%
                              10            1   3333.33%   6666.67%
                              12            0      0.00%   6666.67%
                              14            0      0.00%   6666.67%
                              16            0      0.00%   6666.67%
                              18            0      0.00%   6666.67%
                              20            0      0.00%   6666.67%
                              22            0      0.00%   6666.67%
                              24            0      0.00%   6666.67%
                              26            0      0.00%   6666.67%
                              28            0      0.00%   6666.67%
                              30            0      0.00%   6666.67%
                              32            0      0.00%   6666.67%
                              34            0      0.00%   6666.67%
                              36            0      0.00%   6666.67%
                              38            0      0.00%   6666.67%
                              40            0      0.00%   6666.67%
                              42            0      0.00%   6666.67%
                              44            0      0.00%   6666.67%
                              46            0      0.00%   6666.67%
                              48            0      0.00%   6666.67%
                              50            0      0.00%   6666.67%
                              52            0      0.00%   6666.67%
                              54            0      0.00%   6666.67%
                              56            0      0.00%   6666.67%
                              58            0      0.00%   6666.67%
                              60            0      0.00%   6666.67%
                              62            0      0.00%   6666.67%
                              64            0      0.00%   6666.67%
                              66            0      0.00%   6666.67%
                              68            0      0.00%   6666.67%
                              70            1   3333.33%  10000.00%
                              72            0      0.00%  10000.00%
                              74            0      0.00%  10000.00%
                              76            0      0.00%  10000.00%
                              78            0      0.00%  10000.00%
                              80            0      0.00%  10000.00%
                              82            0      0.00%  10000.00%
                              84            0      0.00%  10000.00%
                              86            0      0.00%  10000.00%
                              88            0      0.00%  10000.00%
                              90            0      0.00%  10000.00%
                              92            0      0.00%  10000.00%
                              94            0      0.00%  10000.00%
                              96            0      0.00%  10000.00%
                              98            0      0.00%  10000.00%
system.cpu0.IQ:residence:FloatMult.max_value           70                      
system.cpu0.IQ:residence:FloatMult.end_dist

system.cpu0.IQ:residence:FloatDiv.start_dist
system.cpu0.IQ:residence:FloatDiv.samples           60                      
system.cpu0.IQ:residence:FloatDiv.min_value            6                      
                               0            0      0.00%      0.00%
                               2            0      0.00%      0.00%
                               4            0      0.00%      0.00%
                               6           59   9833.33%   9833.33%
                               8            0      0.00%   9833.33%
                              10            0      0.00%   9833.33%
                              12            0      0.00%   9833.33%
                              14            0      0.00%   9833.33%
                              16            0      0.00%   9833.33%
                              18            0      0.00%   9833.33%
                              20            0      0.00%   9833.33%
                              22            0      0.00%   9833.33%
                              24            0      0.00%   9833.33%
                              26            0      0.00%   9833.33%
                              28            1    166.67%  10000.00%
                              30            0      0.00%  10000.00%
                              32            0      0.00%  10000.00%
                              34            0      0.00%  10000.00%
                              36            0      0.00%  10000.00%
                              38            0      0.00%  10000.00%
                              40            0      0.00%  10000.00%
                              42            0      0.00%  10000.00%
                              44            0      0.00%  10000.00%
                              46            0      0.00%  10000.00%
                              48            0      0.00%  10000.00%
                              50            0      0.00%  10000.00%
                              52            0      0.00%  10000.00%
                              54            0      0.00%  10000.00%
                              56            0      0.00%  10000.00%
                              58            0      0.00%  10000.00%
                              60            0      0.00%  10000.00%
                              62            0      0.00%  10000.00%
                              64            0      0.00%  10000.00%
                              66            0      0.00%  10000.00%
                              68            0      0.00%  10000.00%
                              70            0      0.00%  10000.00%
                              72            0      0.00%  10000.00%
                              74            0      0.00%  10000.00%
                              76            0      0.00%  10000.00%
                              78            0      0.00%  10000.00%
                              80            0      0.00%  10000.00%
                              82            0      0.00%  10000.00%
                              84            0      0.00%  10000.00%
                              86            0      0.00%  10000.00%
                              88            0      0.00%  10000.00%
                              90            0      0.00%  10000.00%
                              92            0      0.00%  10000.00%
                              94            0      0.00%  10000.00%
                              96            0      0.00%  10000.00%
                              98            0      0.00%  10000.00%
system.cpu0.IQ:residence:FloatDiv.max_value           29                      
system.cpu0.IQ:residence:FloatDiv.end_dist

system.cpu0.IQ:residence:FloatSqrt.start_dist
system.cpu0.IQ:residence:FloatSqrt.samples            0                      
system.cpu0.IQ:residence:FloatSqrt.min_value            0                      
                               0            0                      
                               2            0                      
                               4            0                      
                               6            0                      
                               8            0                      
                              10            0                      
                              12            0                      
                              14            0                      
                              16            0                      
                              18            0                      
                              20            0                      
                              22            0                      
                              24            0                      
                              26            0                      
                              28            0                      
                              30            0                      
                              32            0                      
                              34            0                      
                              36            0                      
                              38            0                      
                              40            0                      
                              42            0                      
                              44            0                      
                              46            0                      
                              48            0                      
                              50            0                      
                              52            0                      
                              54            0                      
                              56            0                      
                              58            0                      
                              60            0                      
                              62            0                      
                              64            0                      
                              66            0                      
                              68            0                      
                              70            0                      
                              72            0                      
                              74            0                      
                              76            0                      
                              78            0                      
                              80            0                      
                              82            0                      
                              84            0                      
                              86            0                      
                              88            0                      
                              90            0                      
                              92            0                      
                              94            0                      
                              96            0                      
                              98            0                      
system.cpu0.IQ:residence:FloatSqrt.max_value            0                      
system.cpu0.IQ:residence:FloatSqrt.end_dist

system.cpu0.IQ:residence:MemRead.start_dist
system.cpu0.IQ:residence:MemRead.samples     38513089                      
system.cpu0.IQ:residence:MemRead.min_value            1                      
                               0      4054526   1052.77%   1052.77%
                               2      6354038   1649.84%   2702.60%
                               4      3236313    840.32%   3542.92%
                               6      2640305    685.56%   4228.48%
                               8      1928841    500.83%   4729.31%
                              10      1602691    416.14%   5145.45%
                              12      1192614    309.66%   5455.11%
                              14      1059722    275.16%   5730.27%
                              16      1166349    302.84%   6033.12%
                              18      1721446    446.98%   6480.09%
                              20      2408624    625.40%   7105.50%
                              22      3053265    792.79%   7898.28%
                              24      1003420    260.54%   8158.82%
                              26       244805     63.56%   8222.39%
                              28       208132     54.04%   8276.43%
                              30       161654     41.97%   8318.40%
                              32       142195     36.92%   8355.33%
                              34       209934     54.51%   8409.84%
                              36       246632     64.04%   8473.87%
                              38       245378     63.71%   8537.59%
                              40       174578     45.33%   8582.92%
                              42       186516     48.43%   8631.35%
                              44       133299     34.61%   8665.96%
                              46       172547     44.80%   8710.76%
                              48        81445     21.15%   8731.91%
                              50       118108     30.67%   8762.57%
                              52        73785     19.16%   8781.73%
                              54        89305     23.19%   8804.92%
                              56        45463     11.80%   8816.72%
                              58        48600     12.62%   8829.34%
                              60        72962     18.94%   8848.29%
                              62        67461     17.52%   8865.80%
                              64       124028     32.20%   8898.01%
                              66        42911     11.14%   8909.15%
                              68        52942     13.75%   8922.90%
                              70        30757      7.99%   8930.88%
                              72        41299     10.72%   8941.61%
                              74        30780      7.99%   8949.60%
                              76        28331      7.36%   8956.96%
                              78        65325     16.96%   8973.92%
                              80        40675     10.56%   8984.48%
                              82        28546      7.41%   8991.89%
                              84        40794     10.59%   9002.48%
                              86        49165     12.77%   9015.25%
                              88        21248      5.52%   9020.77%
                              90        24910      6.47%   9027.23%
                              92        22947      5.96%   9033.19%
                              94        27611      7.17%   9040.36%
                              96        22612      5.87%   9046.23%
                              98         8825      2.29%   9048.52%
system.cpu0.IQ:residence:MemRead.overflows      3664430                      
system.cpu0.IQ:residence:MemRead.max_value        20542                      
system.cpu0.IQ:residence:MemRead.end_dist

system.cpu0.IQ:residence:MemWrite.start_dist
system.cpu0.IQ:residence:MemWrite.samples     23135431                      
system.cpu0.IQ:residence:MemWrite.min_value            1                      
                               0      2088026    902.52%    902.52%
                               2      4175390   1804.76%   2707.28%
                               4      2433220   1051.73%   3759.01%
                               6      1977991    854.96%   4613.97%
                               8      1514853    654.78%   5268.75%
                              10       936887    404.96%   5673.71%
                              12       720990    311.64%   5985.35%
                              14       648983    280.51%   6265.86%
                              16       731068    315.99%   6581.86%
                              18       967273    418.09%   6999.95%
                              20      1281107    553.74%   7553.69%
                              22      1835970    793.58%   8347.27%
                              24       980898    423.98%   8771.25%
                              26       246912    106.72%   8877.97%
                              28       192930     83.39%   8961.36%
                              30       131246     56.73%   9018.09%
                              32       182897     79.05%   9097.15%
                              34       181403     78.41%   9175.56%
                              36       211660     91.49%   9267.04%
                              38       167274     72.30%   9339.35%
                              40       156984     67.85%   9407.20%
                              42       117161     50.64%   9457.84%
                              44       106426     46.00%   9503.84%
                              46        68807     29.74%   9533.58%
                              48        53237     23.01%   9556.59%
                              50       150017     64.84%   9621.44%
                              52        64544     27.90%   9649.34%
                              54        32311     13.97%   9663.30%
                              56        29686     12.83%   9676.13%
                              58        20749      8.97%   9685.10%
                              60        45392     19.62%   9704.72%
                              62        63357     27.39%   9732.11%
                              64       131574     56.87%   9788.98%
                              66        15309      6.62%   9795.60%
                              68        18363      7.94%   9803.53%
                              70        18947      8.19%   9811.72%
                              72        24423     10.56%   9822.28%
                              74        20181      8.72%   9831.00%
                              76        32000     13.83%   9844.83%
                              78        43097     18.63%   9863.46%
                              80        36226     15.66%   9879.12%
                              82        18012      7.79%   9886.91%
                              84        12001      5.19%   9892.09%
                              86         8659      3.74%   9895.84%
                              88        11506      4.97%   9900.81%
                              90        13882      6.00%   9906.81%
                              92        13953      6.03%   9912.84%
                              94         7286      3.15%   9915.99%
                              96         4381      1.89%   9917.88%
                              98         7178      3.10%   9920.99%
system.cpu0.IQ:residence:MemWrite.overflows       182804                      
system.cpu0.IQ:residence:MemWrite.max_value        20547                      
system.cpu0.IQ:residence:MemWrite.end_dist

system.cpu0.IQ:residence:IprAccess.start_dist
system.cpu0.IQ:residence:IprAccess.samples      1425770                      
system.cpu0.IQ:residence:IprAccess.min_value            1                      
                               0       296908   2082.44%   2082.44%
                               2       251246   1762.18%   3844.62%
                               4        80619    565.44%   4410.06%
                               6       271685   1905.53%   6315.59%
                               8       227685   1596.93%   7912.52%
                              10        62930    441.38%   8353.89%
                              12        45214    317.12%   8671.01%
                              14        36911    258.88%   8929.90%
                              16        35273    247.40%   9177.29%
                              18        18723    131.32%   9308.61%
                              20        18131    127.17%   9435.78%
                              22        18368    128.83%   9564.61%
                              24        11669     81.84%   9646.45%
                              26         4093     28.71%   9675.16%
                              28         5688     39.89%   9715.05%
                              30         3154     22.12%   9737.17%
                              32         2004     14.06%   9751.23%
                              34         2362     16.57%   9767.80%
                              36         4222     29.61%   9797.41%
                              38         4414     30.96%   9828.37%
                              40         1054      7.39%   9835.76%
                              42          452      3.17%   9838.93%
                              44         1154      8.09%   9847.02%
                              46          768      5.39%   9852.41%
                              48         1655     11.61%   9864.02%
                              50          906      6.35%   9870.37%
                              52          783      5.49%   9875.86%
                              54          527      3.70%   9879.56%
                              56          488      3.42%   9882.98%
                              58         2625     18.41%   9901.39%
                              60          776      5.44%   9906.84%
                              62          550      3.86%   9910.69%
                              64         2555     17.92%   9928.61%
                              66          328      2.30%   9930.91%
                              68          271      1.90%   9932.82%
                              70          452      3.17%   9935.99%
                              72          406      2.85%   9938.83%
                              74          227      1.59%   9940.43%
                              76          609      4.27%   9944.70%
                              78          713      5.00%   9949.70%
                              80          457      3.21%   9952.90%
                              82          263      1.84%   9954.75%
                              84          801      5.62%   9960.37%
                              86          837      5.87%   9966.24%
                              88          318      2.23%   9968.47%
                              90          888      6.23%   9974.69%
                              92          357      2.50%   9977.20%
                              94          469      3.29%   9980.49%
                              96          381      2.67%   9983.16%
                              98          182      1.28%   9984.44%
system.cpu0.IQ:residence:IprAccess.overflows         2219                      
system.cpu0.IQ:residence:IprAccess.max_value          314                      
system.cpu0.IQ:residence:IprAccess.end_dist

system.cpu0.IQ:residence:InstPrefetch.start_dist
system.cpu0.IQ:residence:InstPrefetch.samples            0                      
system.cpu0.IQ:residence:InstPrefetch.min_value            0                      
                               0            0                      
                               2            0                      
                               4            0                      
                               6            0                      
                               8            0                      
                              10            0                      
                              12            0                      
                              14            0                      
                              16            0                      
                              18            0                      
                              20            0                      
                              22            0                      
                              24            0                      
                              26            0                      
                              28            0                      
                              30            0                      
                              32            0                      
                              34            0                      
                              36            0                      
                              38            0                      
                              40            0                      
                              42            0                      
                              44            0                      
                              46            0                      
                              48            0                      
                              50            0                      
                              52            0                      
                              54            0                      
                              56            0                      
                              58            0                      
                              60            0                      
                              62            0                      
                              64            0                      
                              66            0                      
                              68            0                      
                              70            0                      
                              72            0                      
                              74            0                      
                              76            0                      
                              78            0                      
                              80            0                      
                              82            0                      
                              84            0                      
                              86            0                      
                              88            0                      
                              90            0                      
                              92            0                      
                              94            0                      
                              96            0                      
                              98            0                      
system.cpu0.IQ:residence:InstPrefetch.max_value            0                      
system.cpu0.IQ:residence:InstPrefetch.end_dist

system.cpu0.ISSUE:(null)_delay.start_dist 
system.cpu0.ISSUE:(null)_delay.samples           9547                      
system.cpu0.ISSUE:(null)_delay.min_value            1                      
                               0         8589   8996.54%   8996.54%
                               2          647    677.70%   9674.24%
                               4          157    164.45%   9838.69%
                               6           29     30.38%   9869.07%
                               8          114    119.41%   9988.48%
                              10            2      2.09%   9990.57%
                              12            1      1.05%   9991.62%
                              14            1      1.05%   9992.67%
                              16            4      4.19%   9996.86%
                              18            1      1.05%   9997.91%
                              20            2      2.09%  10000.00%
                              22            0      0.00%  10000.00%
                              24            0      0.00%  10000.00%
                              26            0      0.00%  10000.00%
                              28            0      0.00%  10000.00%
                              30            0      0.00%  10000.00%
                              32            0      0.00%  10000.00%
                              34            0      0.00%  10000.00%
                              36            0      0.00%  10000.00%
                              38            0      0.00%  10000.00%
                              40            0      0.00%  10000.00%
                              42            0      0.00%  10000.00%
                              44            0      0.00%  10000.00%
                              46            0      0.00%  10000.00%
                              48            0      0.00%  10000.00%
                              50            0      0.00%  10000.00%
                              52            0      0.00%  10000.00%
                              54            0      0.00%  10000.00%
                              56            0      0.00%  10000.00%
                              58            0      0.00%  10000.00%
                              60            0      0.00%  10000.00%
                              62            0      0.00%  10000.00%
                              64            0      0.00%  10000.00%
                              66            0      0.00%  10000.00%
                              68            0      0.00%  10000.00%
                              70            0      0.00%  10000.00%
                              72            0      0.00%  10000.00%
                              74            0      0.00%  10000.00%
                              76            0      0.00%  10000.00%
                              78            0      0.00%  10000.00%
                              80            0      0.00%  10000.00%
                              82            0      0.00%  10000.00%
                              84            0      0.00%  10000.00%
                              86            0      0.00%  10000.00%
                              88            0      0.00%  10000.00%
                              90            0      0.00%  10000.00%
                              92            0      0.00%  10000.00%
                              94            0      0.00%  10000.00%
                              96            0      0.00%  10000.00%
                              98            0      0.00%  10000.00%
system.cpu0.ISSUE:(null)_delay.max_value           21                      
system.cpu0.ISSUE:(null)_delay.end_dist

system.cpu0.ISSUE:IntAlu_delay.start_dist 
system.cpu0.ISSUE:IntAlu_delay.samples      117799640                      
system.cpu0.ISSUE:IntAlu_delay.min_value            0                      
                               0    105873501   8987.59%   8987.59%
                               2      5381138    456.80%   9444.40%
                               4      1831190    155.45%   9599.85%
                               6       796491     67.61%   9667.46%
                               8       473038     40.16%   9707.62%
                              10       338036     28.70%   9736.31%
                              12       564140     47.89%   9784.20%
                              14      1110279     94.25%   9878.45%
                              16       658509     55.90%   9934.35%
                              18       282408     23.97%   9958.33%
                              20       218788     18.57%   9976.90%
                              22       259946     22.07%   9998.97%
                              24        12176      1.03%  10000.00%
                              26            0      0.00%  10000.00%
                              28            0      0.00%  10000.00%
                              30            0      0.00%  10000.00%
                              32            0      0.00%  10000.00%
                              34            0      0.00%  10000.00%
                              36            0      0.00%  10000.00%
                              38            0      0.00%  10000.00%
                              40            0      0.00%  10000.00%
                              42            0      0.00%  10000.00%
                              44            0      0.00%  10000.00%
                              46            0      0.00%  10000.00%
                              48            0      0.00%  10000.00%
                              50            0      0.00%  10000.00%
                              52            0      0.00%  10000.00%
                              54            0      0.00%  10000.00%
                              56            0      0.00%  10000.00%
                              58            0      0.00%  10000.00%
                              60            0      0.00%  10000.00%
                              62            0      0.00%  10000.00%
                              64            0      0.00%  10000.00%
                              66            0      0.00%  10000.00%
                              68            0      0.00%  10000.00%
                              70            0      0.00%  10000.00%
                              72            0      0.00%  10000.00%
                              74            0      0.00%  10000.00%
                              76            0      0.00%  10000.00%
                              78            0      0.00%  10000.00%
                              80            0      0.00%  10000.00%
                              82            0      0.00%  10000.00%
                              84            0      0.00%  10000.00%
                              86            0      0.00%  10000.00%
                              88            0      0.00%  10000.00%
                              90            0      0.00%  10000.00%
                              92            0      0.00%  10000.00%
                              94            0      0.00%  10000.00%
                              96            0      0.00%  10000.00%
                              98            0      0.00%  10000.00%
system.cpu0.ISSUE:IntAlu_delay.max_value           24                      
system.cpu0.ISSUE:IntAlu_delay.end_dist

system.cpu0.ISSUE:IntMult_delay.start_dist
system.cpu0.ISSUE:IntMult_delay.samples        386093                      
system.cpu0.ISSUE:IntMult_delay.min_value            0                      
                               0       289921   7509.10%   7509.10%
                               2        48659   1260.29%   8769.39%
                               4        23247    602.11%   9371.50%
                               6         6721    174.08%   9545.58%
                               8         1471     38.10%   9583.68%
                              10         2369     61.36%   9645.03%
                              12         1425     36.91%   9681.94%
                              14         1513     39.19%   9721.13%
                              16          409     10.59%   9731.72%
                              18         3759     97.36%   9829.08%
                              20         3708     96.04%   9925.12%
                              22         2317     60.01%   9985.13%
                              24          574     14.87%  10000.00%
                              26            0      0.00%  10000.00%
                              28            0      0.00%  10000.00%
                              30            0      0.00%  10000.00%
                              32            0      0.00%  10000.00%
                              34            0      0.00%  10000.00%
                              36            0      0.00%  10000.00%
                              38            0      0.00%  10000.00%
                              40            0      0.00%  10000.00%
                              42            0      0.00%  10000.00%
                              44            0      0.00%  10000.00%
                              46            0      0.00%  10000.00%
                              48            0      0.00%  10000.00%
                              50            0      0.00%  10000.00%
                              52            0      0.00%  10000.00%
                              54            0      0.00%  10000.00%
                              56            0      0.00%  10000.00%
                              58            0      0.00%  10000.00%
                              60            0      0.00%  10000.00%
                              62            0      0.00%  10000.00%
                              64            0      0.00%  10000.00%
                              66            0      0.00%  10000.00%
                              68            0      0.00%  10000.00%
                              70            0      0.00%  10000.00%
                              72            0      0.00%  10000.00%
                              74            0      0.00%  10000.00%
                              76            0      0.00%  10000.00%
                              78            0      0.00%  10000.00%
                              80            0      0.00%  10000.00%
                              82            0      0.00%  10000.00%
                              84            0      0.00%  10000.00%
                              86            0      0.00%  10000.00%
                              88            0      0.00%  10000.00%
                              90            0      0.00%  10000.00%
                              92            0      0.00%  10000.00%
                              94            0      0.00%  10000.00%
                              96            0      0.00%  10000.00%
                              98            0      0.00%  10000.00%
system.cpu0.ISSUE:IntMult_delay.max_value           24                      
system.cpu0.ISSUE:IntMult_delay.end_dist

system.cpu0.ISSUE:IntDiv_delay.start_dist 
system.cpu0.ISSUE:IntDiv_delay.samples              0                      
system.cpu0.ISSUE:IntDiv_delay.min_value            0                      
                               0            0                      
                               2            0                      
                               4            0                      
                               6            0                      
                               8            0                      
                              10            0                      
                              12            0                      
                              14            0                      
                              16            0                      
                              18            0                      
                              20            0                      
                              22            0                      
                              24            0                      
                              26            0                      
                              28            0                      
                              30            0                      
                              32            0                      
                              34            0                      
                              36            0                      
                              38            0                      
                              40            0                      
                              42            0                      
                              44            0                      
                              46            0                      
                              48            0                      
                              50            0                      
                              52            0                      
                              54            0                      
                              56            0                      
                              58            0                      
                              60            0                      
                              62            0                      
                              64            0                      
                              66            0                      
                              68            0                      
                              70            0                      
                              72            0                      
                              74            0                      
                              76            0                      
                              78            0                      
                              80            0                      
                              82            0                      
                              84            0                      
                              86            0                      
                              88            0                      
                              90            0                      
                              92            0                      
                              94            0                      
                              96            0                      
                              98            0                      
system.cpu0.ISSUE:IntDiv_delay.max_value            0                      
system.cpu0.ISSUE:IntDiv_delay.end_dist

system.cpu0.ISSUE:FloatAdd_delay.start_dist
system.cpu0.ISSUE:FloatAdd_delay.samples        10010                      
system.cpu0.ISSUE:FloatAdd_delay.min_value            0                      
                               0         5120   5114.89%   5114.89%
                               2          211    210.79%   5325.67%
                               4            6      5.99%   5331.67%
                               6          496    495.50%   5827.17%
                               8           37     36.96%   5864.14%
[...]
system.cpu0.kern.ipl_used_31                 0.778712                      
system.cpu0.kern.mode_good_kernel                3797                      
system.cpu0.kern.mode_good_user                  3475                      
system.cpu0.kern.mode_good_idle                   162                      
system.cpu0.kern.mode_good_interrupt              160                      
system.cpu0.kern.mode_switch_kernel             15277                      
system.cpu0.kern.mode_switch_user                3475                      
system.cpu0.kern.mode_switch_idle                6838                      
system.cpu0.kern.mode_switch_interrupt            160                      
system.cpu0.kern.mode_switch_good            0.294913                      
system.cpu0.kern.mode_switch_good_kernel     0.248544                      
system.cpu0.kern.mode_switch_good_user              1                      
system.cpu0.kern.mode_switch_good_idle       0.023691                      
system.cpu0.kern.mode_switch_good_interrupt            1                      
system.cpu0.kern.mode_ticks_kernel           73482761      7.52%      7.52%
system.cpu0.kern.mode_ticks_user             17003957      1.74%      9.26%
system.cpu0.kern.mode_ticks_idle            884940754     90.56%     99.82%
system.cpu0.kern.mode_ticks_interrupt         1748889      0.18%    100.00%
system.cpu0.kern.swap_context                    5714                      
system.cpu0.kern.syscall                         1127                      
system.cpu0.kern.syscall_exit                      23      2.04%      2.04%
system.cpu0.kern.syscall_fork                      12      1.06%      3.11%
system.cpu0.kern.syscall_read                      91      8.07%     11.18%
system.cpu0.kern.syscall_write                     93      8.25%     19.43%
system.cpu0.kern.syscall_close                     74      6.57%     26.00%
system.cpu0.kern.syscall_chdir                      2      0.18%     26.18%
system.cpu0.kern.syscall_chmod                      1      0.09%     26.26%
system.cpu0.kern.syscall_obreak                    62      5.50%     31.77%
system.cpu0.kern.syscall_lseek                     12      1.06%     32.83%
system.cpu0.kern.syscall_getpid                    76      6.74%     39.57%
system.cpu0.kern.syscall_setuid                     4      0.35%     39.93%
system.cpu0.kern.syscall_getuid                    12      1.06%     40.99%
system.cpu0.kern.syscall_access                     4      0.35%     41.35%
system.cpu0.kern.syscall_kill                      27      2.40%     43.74%
system.cpu0.kern.syscall_dup                        4      0.35%     44.10%
system.cpu0.kern.syscall_pipe                       1      0.09%     44.19%
system.cpu0.kern.syscall_open                      99      8.78%     52.97%
system.cpu0.kern.syscall_getgid                    12      1.06%     54.04%
system.cpu0.kern.syscall_sigprocmask               87      7.72%     61.76%
system.cpu0.kern.syscall_ioctl                     23      2.04%     63.80%
system.cpu0.kern.syscall_readlink                   3      0.27%     64.06%
system.cpu0.kern.syscall_execve                     9      0.80%     64.86%
system.cpu0.kern.syscall_pre_F64_stat              36      3.19%     68.06%
system.cpu0.kern.syscall_pre_F64_lstat              1      0.09%     68.15%
system.cpu0.kern.syscall_mmap                      90      7.99%     76.13%
system.cpu0.kern.syscall_munmap                    32      2.84%     78.97%
system.cpu0.kern.syscall_mprotect                  38      3.37%     82.34%
system.cpu0.kern.syscall_gethostname                3      0.27%     82.61%
system.cpu0.kern.syscall_dup2                       3      0.27%     82.87%
system.cpu0.kern.syscall_pre_F64_fstat             36      3.19%     86.07%
system.cpu0.kern.syscall_fcntl                     18      1.60%     87.67%
system.cpu0.kern.syscall_poll                      44      3.90%     91.57%
system.cpu0.kern.syscall_socket                     4      0.35%     91.93%
system.cpu0.kern.syscall_connect                    4      0.35%     92.28%
system.cpu0.kern.syscall_sigreturn                 48      4.26%     96.54%
system.cpu0.kern.syscall_sigsuspend                27      2.40%     98.94%
system.cpu0.kern.syscall_setgid                     4      0.35%     99.29%
system.cpu0.kern.syscall_getrlimit                  3      0.27%     99.56%
system.cpu0.kern.syscall_setsid                     3      0.27%     99.82%
system.cpu0.kern.syscall_getsysinfo                 1      0.09%     99.91%
system.cpu0.kern.syscall_setsysinfo                 1      0.09%    100.00%
system.cpu0.numCycles                       977178041                      
system.cpu0inst_class_dist.start_dist
                   All ops ready            0      0.00%           
                One op not ready            0      0.00%           
           None rdy, mult chains            0      0.00%           
           None rdy, one chained            0      0.00%           
        None rdy, all self-timed            0      0.00%           
system.cpu0inst_class_dist.end_dist
system.htbus.addr_idle_cycles               976192716                      
system.htbus.addr_idle_fraction              0.998992                      
system.htbus.addr_queued                    41.536274                      
system.htbus.addr_queued_cycles               5606234                      
system.htbus.addr_requests                     134972                      
system.htbus.bus_blocked                            0                      
system.htbus.bus_blocked_cycles                     0                      
system.htbus.bus_blocked_fraction                   0                      
system.htbus.data_idle_cycles               976090849                      
system.htbus.data_idle_fraction              0.998887                      
system.htbus.data_queued                            1                      
system.htbus.data_queued_cycles                  8800                      
system.htbus.data_requests                       8800                      
system.htbus.null_grants                            0                      
system.kern.fnCalls                                 0                      
system.l2.avg_blocked_cycles_no_mshrs    <err: div-0>                      
system.l2.avg_blocked_cycles_no_targets  <err: div-0>                      
system.l2.avg_refs                           2.378311                      
system.l2.blocked_no_mshrs                          0                      
system.l2.blocked_no_targets                        0                      
system.l2.blocked_cycles_no_mshrs                   0                      
system.l2.blocked_cycles_no_targets                 0                      
system.l2.cache_copies                              0                      
system.l2.demand_accesses                     3352723                      
system.l2.demand_avg_miss_latency           68.882842                      
system.l2.demand_avg_mshr_miss_latency      38.965414                      
system.l2.demand_hits                         2166946                      
system.l2.demand_miss_latency                81679690                      
system.l2.demand_miss_rate                   0.353676                      
system.l2.demand_misses                       1185777                      
system.l2.demand_mshr_hits                          0                      
system.l2.demand_mshr_miss_latency           46204292                      
system.l2.demand_mshr_miss_rate              0.353676                      
system.l2.demand_mshr_misses                  1185777                      
system.l2.fast_writes                               0                      
system.l2.mshr_cap_events                           0                      
system.l2.no_allocate_misses                        0                      
system.l2.overall_accesses                    4003573                      
system.l2.overall_avg_miss_latency          68.882842                      
system.l2.overall_avg_mshr_miss_latency     38.965414                      
system.l2.overall_avg_mshr_uncacheable_latency   250.331869                      
system.l2.overall_hits                        2817796                      
system.l2.overall_miss_latency               81679690                      
system.l2.overall_miss_rate                  0.296180                      
system.l2.overall_misses                      1185777                      
system.l2.overall_mshr_hits                         0                      
system.l2.overall_mshr_miss_latency          46204292                      
system.l2.overall_mshr_miss_rate             0.296180                      
system.l2.overall_mshr_misses                 1185777                      
system.l2.overall_mshr_uncacheable_latency      5301278                      
system.l2.overall_mshr_uncacheable_misses        21177                      
system.l2.prefetcher.num_hwpf_already_in_cache            0                      
system.l2.prefetcher.num_hwpf_already_in_mshr            0                      
system.l2.prefetcher.num_hwpf_already_in_prefetcher            0                      
system.l2.prefetcher.num_hwpf_evicted               0                      
system.l2.prefetcher.num_hwpf_identified            0                      
system.l2.prefetcher.num_hwpf_issued                0                      
system.l2.prefetcher.num_hwpf_removed_MSHR_hit            0                      
system.l2.prefetcher.num_hwpf_span_page             0                      
system.l2.prefetcher.num_hwpf_squashed_from_miss            0                      
system.l2.read_accesses                       3352723                      
system.l2.read_avg_miss_latency             68.882842                      
system.l2.read_avg_mshr_miss_latency        38.965414                      
system.l2.read_avg_mshr_uncacheable_latency   229.885968                      
system.l2.read_hits                           2166946                      
system.l2.read_miss_latency                  81679690                      
system.l2.read_miss_rate                     0.353676                      
system.l2.read_misses                         1185777                      
system.l2.read_mshr_miss_latency             46204292                      
system.l2.read_mshr_miss_rate                0.353676                      
system.l2.read_mshr_misses                    1185777                      
system.l2.read_mshr_uncacheable                  9585                      
system.l2.read_mshr_uncacheable_latency       2203457                      
system.l2.replacements                        1151572                      
system.l2.sampled_refs                        1183799                      
system.l2.soft_prefetch_mshr_full                   0                      
system.l2.tagsinuse                      32552.767429                      
system.l2.total_refs                          2815442                      
system.l2.warmup_cycle                        3628672                      
system.l2.write_avg_mshr_uncacheable_latency   267.237836                      
system.l2.write_mshr_uncacheable                11592                      
system.l2.write_mshr_uncacheable_latency      3097821                      
system.l2.writeback_accesses                   650850                      
system.l2.writeback_hits                       650850                      
system.l2.writebacks                           147655                      
system.l2bus.addr_idle_cycles               973085801                      
system.l2bus.addr_idle_fraction              0.995812                      
system.l2bus.addr_queued                     4.045251                      
system.l2bus.addr_queued_cycles              16550072                      
system.l2bus.addr_requests                    4091235                      
system.l2bus.bus_blocked                          219                      
system.l2bus.bus_blocked_cycles                104894                      
system.l2bus.bus_blocked_fraction            0.000107                      
system.l2bus.data_idle_cycles               973153213                      
system.l2bus.data_idle_fraction              0.995881                      
system.l2bus.data_queued                     1.016892                      
system.l2bus.data_queued_cycles               3419132                      
system.l2bus.data_requests                    3362335                      
system.l2bus.null_grants                        38796                      
system.membus.addr_idle_cycles              975693811                      
system.membus.addr_idle_fraction             0.998481                      
system.membus.addr_queued                   26.564429                      
system.membus.addr_queued_cycles             39210718                      
system.membus.addr_requests                   1476061                      
system.membus.bus_blocked                           0                      
system.membus.bus_blocked_cycles                    0                      
system.membus.bus_blocked_fraction                  0                      
system.membus.data_idle_cycles              971594828                      
system.membus.data_idle_fraction             0.994286                      
system.membus.data_queued                    2.153993                      
system.membus.data_queued_cycles              2575293                      
system.membus.data_requests                   1195590                      
system.membus.null_grants                           0                      
system.pcibus.addr_idle_cycles              975845349                      
system.pcibus.addr_idle_fraction             0.998636                      
system.pcibus.addr_queued                  562.607237                      
system.pcibus.addr_queued_cycles             75936224                      
system.pcibus.addr_requests                    134972                      
system.pcibus.bus_blocked                        3427                      
system.pcibus.bus_blocked_cycles               109661                      
system.pcibus.bus_blocked_fraction           0.000112                      
system.pcibus.data_idle_cycles              974956437                      
system.pcibus.data_idle_fraction             0.997727                      
system.pcibus.data_queued                    3.259205                      
system.pcibus.data_queued_cycles                28681                      
system.pcibus.data_requests                      8800                      
system.pcibus.null_grants                           0                      
system.ram.accesses                           1388476                      
system.ram.bytes_requested                          0                      
system.ram.bytes_sent                               0                      
system.ram.compressed_responses                     0                      
system.tsunami.etherdev0.coalescedRxDesc <err: div-0>                      
system.tsunami.etherdev0.coalescedRxIdle <err: div-0>                      
system.tsunami.etherdev0.coalescedRxOk   <err: div-0>                      
system.tsunami.etherdev0.coalescedRxOrn  <err: div-0>                      
system.tsunami.etherdev0.coalescedSwi    <err: div-0>                      
system.tsunami.etherdev0.coalescedTotal  <err: div-0>                      
system.tsunami.etherdev0.coalescedTxDesc <err: div-0>                      
system.tsunami.etherdev0.coalescedTxIdle <err: div-0>                      
system.tsunami.etherdev0.coalescedTxOk   <err: div-0>                      
system.tsunami.etherdev0.descDMAReads               0                      
system.tsunami.etherdev0.descDMAWrites              0                      
system.tsunami.etherdev0.descDmaReadBytes            0                      
system.tsunami.etherdev0.descDmaWriteBytes            0                      
system.tsunami.etherdev0.dma.avg_large_transaction_latency <err: div-0>                      
system.tsunami.etherdev0.dma.avg_small_transaction_latency <err: div-0>                      
system.tsunami.etherdev0.dma.avg_transaction_latency <err: div-0>                      
system.tsunami.etherdev0.dma.bytes_transfered            0                      
system.tsunami.etherdev0.dma.large_transaction_latency            0                      
system.tsunami.etherdev0.dma.large_transactions            0                      
system.tsunami.etherdev0.dma.packets_sent            0                      
system.tsunami.etherdev0.dma.requests               0                      
system.tsunami.etherdev0.dma.round_trip_latency <err: div-0>                      
system.tsunami.etherdev0.dma.small_transaction_latency            0                      
system.tsunami.etherdev0.dma.small_transactions            0                      
system.tsunami.etherdev0.dma.total_cycle_latency            0                      
system.tsunami.etherdev0.dma.transaction_latency            0                      
system.tsunami.etherdev0.droppedPackets             0                      
system.tsunami.etherdev0.postedInterrupts            0                      
system.tsunami.etherdev0.postedRxDesc               0                      
system.tsunami.etherdev0.postedRxIdle               0                      
system.tsunami.etherdev0.postedRxOk                 0                      
system.tsunami.etherdev0.postedRxOrn                0                      
system.tsunami.etherdev0.postedSwi                  0                      
system.tsunami.etherdev0.postedTxDesc               0                      
system.tsunami.etherdev0.postedTxIdle               0                      
system.tsunami.etherdev0.postedTxOk                 0                      
system.tsunami.etherdev0.totalRxDesc                0                      
system.tsunami.etherdev0.totalRxIdle                0                      
system.tsunami.etherdev0.totalRxOk                  0                      
system.tsunami.etherdev0.totalRxOrn                 0                      
system.tsunami.etherdev0.totalSwi                   0                      
system.tsunami.etherdev0.totalTxDesc                0                      
system.tsunami.etherdev0.totalTxIdle                0                      
system.tsunami.etherdev0.totalTxOk                  0                      
system.tsunami.ide.dma.avg_large_transaction_latency  2822.990494                      
system.tsunami.ide.dma.avg_small_transaction_latency   254.995283                      
system.tsunami.ide.dma.avg_transaction_latency  2085.300813                      
system.tsunami.ide.dma.bytes_transfered       3522160                      
system.tsunami.ide.dma.large_transaction_latency      1484893                      
system.tsunami.ide.dma.large_transactions          526                      
system.tsunami.ide.dma.packets_sent             55044                      
system.tsunami.ide.dma.requests                   738                      
system.tsunami.ide.dma.round_trip_latency  1594.132112                      
system.tsunami.ide.dma.small_transaction_latency        54059                      
system.tsunami.ide.dma.small_transactions          212                      
system.tsunami.ide.dma.total_cycle_latency     87747408                      
system.tsunami.ide.dma.transaction_latency      1538952                      

---------- End Simulation Statistics   ----------
