
---------- Begin Simulation Statistics ----------
host_inst_rate                                  24859                      
host_mem_usage                                 198088                      
host_seconds                                 14816.51                      
host_tick_rate                                  93583                      
sim_freq                                    400000000                      
sim_insts                                   368326603                      
sim_seconds                                  3.466431                      
sim_ticks                                  1386572216                      
system.cpu0.COM:IPB                          7.282109                      
system.cpu0.COM:IPC                          0.050213                      
system.cpu0.COM:branches                      9560990                      
system.cpu0.COM:bw_lim_avg               <err: div-0>                      
system.cpu0.COM:bw_lim_events                       0                      
system.cpu0.COM:bw_lim_rate                    0.0000                      
system.cpu0.COM:bw_lim_stdev_0_mean      <err: div-0>                      
system.cpu0.COM:bw_lim_stdev_0_stdev     <err: div-0>                      
**Ignore: system.cpu0.COM:bw_lim_stdev_0_TOT       0.0000                      
system.cpu0.COM:bw_limited                          0                      
system.cpu0.COM:committed_per_cycle.start_dist
system.cpu0.COM:committed_per_cycle.samples     25655372                      
system.cpu0.COM:committed_per_cycle.min_value            0                      
                               0       236299     92.11%           
                               1      7027628   2739.24%           
                               2      4465975   1740.76%           
                               3      2005452    781.69%           
                               4     11920018   4646.21%           
system.cpu0.COM:committed_per_cycle.max_value            4                      
system.cpu0.COM:committed_per_cycle.end_dist

system.cpu0.COM:count                        69624175                      
system.cpu0.COM:loads                        12263974                      
system.cpu0.COM:membars                        171767                      
system.cpu0.COM:refs                         19604374                      
system.cpu0.COM:stores                        7340400                      
system.cpu0.COM:swp_count                       31831                      
system.cpu0.DDQ:count                      7110780209                      
system.cpu0.DDQ:rate                                5                      
system.cpu0.DIS:chain_creation.start_dist
     Inst has no outstanding IDEPS            0      0.00%           
      IDEP chain reached max depth            0      0.00%           
                    Inst is a load            0      0.00%           
  Chain has multiple chained IDEPS            0      0.00%           
system.cpu0.DIS:chain_creation.end_dist
system.cpu0.DIS:chain_head_frac                     0                      
system.cpu0.DIS:chain_heads                         0                      
system.cpu0.DIS:chains_insuf                        0                      
system.cpu0.DIS:chains_insuf_rate                   0                      
system.cpu0.DIS:count                        82824937                      
system.cpu0.DIS:insufficient_chains                 0                      
system.cpu0.DIS:mod_n_stall_avg_free     <err: div-0>                      
system.cpu0.DIS:mod_n_stall_frac                    0                      
system.cpu0.DIS:mod_n_stall_free                    0                      
system.cpu0.DIS:mod_n_stalls                        0                      
system.cpu0.DIS:one_rdy_insts                       0                      
system.cpu0.DIS:one_rdy_ratio            <err: div-0>                      
system.cpu0.DIS:op_count                    106168530                      
system.cpu0.DIS:op_rate                      0.076569                      
system.cpu0.DIS:rate                         0.059734                      
system.cpu0.DIS:second_choice_clust                 0                      
system.cpu0.DIS:second_choice_stall                 0                      
system.cpu0.DIS:serialize_stall_cycles        4926550                      
system.cpu0.DIS:serializing_insts              174269                      
system.cpu0.DIS:two_input_insts                     0                      
system.cpu0.DIS:two_input_ratio                     0                      
system.cpu0.FETCH:branch_count               20038432                      
system.cpu0.FETCH:branch_rate                0.014452                      
system.cpu0.FETCH:chance_pct                        1                      
system.cpu0.FETCH:chances                    36682886                      
system.cpu0.FETCH:choice                     36682886                      
system.cpu0.FETCH:count                     121402138                      
system.cpu0.FETCH:decisions                  36682886                      
system.cpu0.FETCH:idle_cycles              1349889331                      
system.cpu0.FETCH:idle_icache_blocked_cycles            0                      
system.cpu0.FETCH:idle_rate                     97.35                      
system.cpu0.FETCH:prio_changes                      0                      
system.cpu0.FETCH:rate                       0.087556                      
system.cpu0.FETCH:rate_dist.start_dist    
system.cpu0.FETCH:rate_dist.samples          36682886                      
system.cpu0.FETCH:rate_dist.min_value               0                      
                               0       107009     29.17%           
                               1      5156877   1405.80%           
                               2      2479946    676.05%           
                               3      4470847   1218.78%           
                               4     24468207   6670.20%           
system.cpu0.FETCH:rate_dist.max_value               4                      
system.cpu0.FETCH:rate_dist.end_dist

system.cpu0.FETCH:rate_dist_0.start_dist  
system.cpu0.FETCH:rate_dist_0.samples        36682886                      
system.cpu0.FETCH:rate_dist_0.min_value             0                      
                               0       107009     29.17%           
                               1      5156877   1405.80%           
                               2      2479946    676.05%           
                               3      4470847   1218.78%           
                               4     24468207   6670.20%           
system.cpu0.FETCH:rate_dist_0.max_value             4                      
system.cpu0.FETCH:rate_dist_0.end_dist

system.cpu0.IFQ:count                      3303594951                      
system.cpu0.IFQ:full_count                   98392457                      
system.cpu0.IFQ:full_rate                    7.096093                      
system.cpu0.IFQ:latency                     39.886477                      
system.cpu0.IFQ:occupancy                    2.382562                      
system.cpu0.IFQ:qfull_iq_occ               5030671923                      
system.cpu0.IFQ:qfull_iq_occ_dist_0.start_dist
system.cpu0.IFQ:qfull_iq_occ_dist_0.samples     82801928                      
system.cpu0.IFQ:qfull_iq_occ_dist_0.min_value            0                      
                               0      3106729    375.20%           
                              10       456466     55.13%           
                              20       390222     47.13%           
                              30       560992     67.75%           
                              40       669217     80.82%           
                              50       763172     92.17%           
                              60     76855130   9281.80%           
system.cpu0.IFQ:qfull_iq_occ_dist_0.max_value           64                      
system.cpu0.IFQ:qfull_iq_occ_dist_0.end_dist

system.cpu0.IFQ:qfull_rob_occ              7888155845                      
system.cpu0.IFQ:qfull_rob_occ_dist_0.start_dist
system.cpu0.IFQ:qfull_rob_occ_dist_0.samples     82801928                      
system.cpu0.IFQ:qfull_rob_occ_dist_0.min_value            1                      
                               0       741415     89.54%           
                              10       631963     76.32%           
                              20       470798     56.86%           
                              30       282793     34.15%           
                              40       164714     19.89%           
                              50       114115     13.78%           
                              60       471464     56.94%           
                              70       799703     96.58%           
                              80       405702     49.00%           
                              90     74972579   9054.45%           
                             100       791477     95.59%           
                             110      1042846    125.94%           
                             120      1912359    230.96%           
                             130            0      0.00%           
system.cpu0.IFQ:qfull_rob_occ_dist_0.max_value          128                      
system.cpu0.IFQ:qfull_rob_occ_dist_0.end_dist

system.cpu0.IQ:cap_events                           0                      
system.cpu0.IQ:cap_inst                             0                      
system.cpu0.IQ:residence:(null).start_dist
system.cpu0.IQ:residence:(null).samples          5385                      
system.cpu0.IQ:residence:(null).min_value            1                      
                               0         4864   9032.50%   9032.50%
                               2          336    623.96%   9656.45%
                               4           84    155.99%   9812.44%
                               6           19     35.28%   9847.73%
                               8           57    105.85%   9953.57%
                              10            3      5.57%   9959.15%
                              12            1      1.86%   9961.00%
                              14            1      1.86%   9962.86%
                              16            9     16.71%   9979.57%
                              18            7     13.00%   9992.57%
                              20            3      5.57%   9998.14%
                              22            1      1.86%  10000.00%
                              24            0      0.00%  10000.00%
                              26            0      0.00%  10000.00%
                              28            0      0.00%  10000.00%
                              30            0      0.00%  10000.00%
                              32            0      0.00%  10000.00%
                              34            0      0.00%  10000.00%
                              36            0      0.00%  10000.00%
                              38            0      0.00%  10000.00%
                              40            0      0.00%  10000.00%
                              42            0      0.00%  10000.00%
                              44            0      0.00%  10000.00%
                              46            0      0.00%  10000.00%
                              48            0      0.00%  10000.00%
                              50            0      0.00%  10000.00%
                              52            0      0.00%  10000.00%
                              54            0      0.00%  10000.00%
                              56            0      0.00%  10000.00%
                              58            0      0.00%  10000.00%
                              60            0      0.00%  10000.00%
                              62            0      0.00%  10000.00%
                              64            0      0.00%  10000.00%
                              66            0      0.00%  10000.00%
                              68            0      0.00%  10000.00%
                              70            0      0.00%  10000.00%
                              72            0      0.00%  10000.00%
                              74            0      0.00%  10000.00%
                              76            0      0.00%  10000.00%
                              78            0      0.00%  10000.00%
                              80            0      0.00%  10000.00%
                              82            0      0.00%  10000.00%
                              84            0      0.00%  10000.00%
                              86            0      0.00%  10000.00%
                              88            0      0.00%  10000.00%
                              90            0      0.00%  10000.00%
                              92            0      0.00%  10000.00%
                              94            0      0.00%  10000.00%
                              96            0      0.00%  10000.00%
                              98            0      0.00%  10000.00%
system.cpu0.IQ:residence:(null).max_value           23                      
system.cpu0.IQ:residence:(null).end_dist

system.cpu0.IQ:residence:IntAlu.start_dist
system.cpu0.IQ:residence:IntAlu.samples      52898148                      
system.cpu0.IQ:residence:IntAlu.min_value            1                      
                               0     10633363   2010.16%   2010.16%
                               2      6870940   1298.90%   3309.06%
                               4      3944898    745.75%   4054.81%
                               6      3179899    601.14%   4655.95%
                               8      2626734    496.56%   5152.51%
                              10      1972443    372.88%   5525.39%
                              12      1719379    325.04%   5850.42%
                              14      1639655    309.96%   6160.39%
                              16      1893184    357.89%   6518.28%
                              18      1995862    377.30%   6895.58%
                              20      2301231    435.03%   7330.61%
                              22      2698994    510.22%   7840.84%
                              24      1587340    300.07%   8140.91%
                              26       839875    158.77%   8299.69%
                              28       471017     89.04%   8388.73%
                              30       426284     80.59%   8469.31%
                              32       368467     69.66%   8538.97%
                              34       342592     64.76%   8603.73%
                              36       376218     71.12%   8674.85%
                              38       314517     59.46%   8734.31%
                              40       286151     54.09%   8788.41%
                              42       217066     41.03%   8829.44%
                              44       218911     41.38%   8870.82%
                              46       206431     39.02%   8909.85%
                              48       189422     35.81%   8945.66%
                              50       180191     34.06%   8979.72%
                              52       200894     37.98%   9017.70%
                              54       204788     38.71%   9056.41%
                              56        73397     13.88%   9070.29%
                              58        73262     13.85%   9084.14%
                              60        69378     13.12%   9097.25%
                              62       180708     34.16%   9131.41%
                              64        94518     17.87%   9149.28%
                              66        55752     10.54%   9159.82%
                              68        57574     10.88%   9170.71%
                              70        33867      6.40%   9177.11%
                              72        29637      5.60%   9182.71%
                              74        29723      5.62%   9188.33%
                              76        38814      7.34%   9195.67%
                              78        44131      8.34%   9204.01%
                              80        30270      5.72%   9209.73%
                              82        25971      4.91%   9214.64%
                              84        27169      5.14%   9219.78%
                              86        27557      5.21%   9224.99%
                              88        30100      5.69%   9230.68%
                              90        34001      6.43%   9237.11%
                              92        20759      3.92%   9241.03%
                              94        34447      6.51%   9247.54%
                              96        25190      4.76%   9252.30%
                              98        45258      8.56%   9260.86%
system.cpu0.IQ:residence:IntAlu.overflows      3909919                      
system.cpu0.IQ:residence:IntAlu.max_value        20546                      
system.cpu0.IQ:residence:IntAlu.end_dist

system.cpu0.IQ:residence:IntMult.start_dist
system.cpu0.IQ:residence:IntMult.samples       348242                      
system.cpu0.IQ:residence:IntMult.min_value            1                      
                               0         3890    111.70%    111.70%
                               2         3230     92.75%    204.46%
                               4         5187    148.95%    353.40%
                               6         4614    132.49%    485.90%
                               8         4089    117.42%    603.32%
                              10         3894    111.82%    715.13%
                              12         5044    144.84%    859.98%
                              14        11200    321.62%   1181.59%
                              16         8838    253.79%   1435.38%
                              18        20215    580.49%   2015.87%
                              20        92217   2648.07%   4663.94%
                              22       115602   3319.59%   7983.53%
                              24        46704   1341.14%   9324.67%
                              26         3154     90.57%   9415.23%
                              28          325      9.33%   9424.57%
                              30         2522     72.42%   9496.99%
                              32         1671     47.98%   9544.97%
                              34         2086     59.90%   9604.87%
                              36         1857     53.32%   9658.20%
                              38         1320     37.90%   9696.10%
                              40         4685    134.53%   9830.64%
                              42          544     15.62%   9846.26%
                              44          497     14.27%   9860.53%
                              46          111      3.19%   9863.72%
                              48          119      3.42%   9867.13%
                              50          128      3.68%   9870.81%
                              52          180      5.17%   9875.98%
                              54           93      2.67%   9878.65%
                              56          314      9.02%   9887.66%
                              58           40      1.15%   9888.81%
                              60           12      0.34%   9889.16%
                              62           23      0.66%   9889.82%
                              64           18      0.52%   9890.33%
                              66           38      1.09%   9891.43%
                              68           42      1.21%   9892.63%
                              70          183      5.25%   9897.89%
                              72          135      3.88%   9901.76%
                              74          140      4.02%   9905.78%
                              76           47      1.35%   9907.13%
                              78           13      0.37%   9907.51%
                              80           38      1.09%   9908.60%
                              82           26      0.75%   9909.34%
                              84           20      0.57%   9909.92%
                              86            5      0.14%   9910.06%
                              88           35      1.01%   9911.07%
                              90            1      0.03%   9911.10%
                              92            3      0.09%   9911.18%
                              94            4      0.11%   9911.30%
                              96            3      0.09%   9911.38%
                              98            1      0.03%   9911.41%
system.cpu0.IQ:residence:IntMult.overflows         3085                      
system.cpu0.IQ:residence:IntMult.max_value          729                      
system.cpu0.IQ:residence:IntMult.end_dist

system.cpu0.IQ:residence:IntDiv.start_dist
system.cpu0.IQ:residence:IntDiv.samples             0                      
system.cpu0.IQ:residence:IntDiv.min_value            0                      
                               0            0                      
                               2            0                      
                               4            0                      
                               6            0                      
                               8            0                      
                              10            0                      
                              12            0                      
                              14            0                      
                              16            0                      
                              18            0                      
                              20            0                      
                              22            0                      
                              24            0                      
                              26            0                      
                              28            0                      
                              30            0                      
                              32            0                      
                              34            0                      
                              36            0                      
                              38            0                      
                              40            0                      
                              42            0                      
                              44            0                      
                              46            0                      
                              48            0                      
                              50            0                      
                              52            0                      
                              54            0                      
                              56            0                      
                              58            0                      
                              60            0                      
                              62            0                      
                              64            0                      
                              66            0                      
                              68            0                      
                              70            0                      
                              72            0                      
                              74            0                      
                              76            0                      
                              78            0                      
                              80            0                      
                              82            0                      
                              84            0                      
                              86            0                      
                              88            0                      
                              90            0                      
                              92            0                      
                              94            0                      
                              96            0                      
                              98            0                      
system.cpu0.IQ:residence:IntDiv.max_value            0                      
system.cpu0.IQ:residence:IntDiv.end_dist

system.cpu0.IQ:residence:FloatAdd.start_dist
system.cpu0.IQ:residence:FloatAdd.samples         3212                      
system.cpu0.IQ:residence:FloatAdd.min_value            1                      
                               0          102    317.56%    317.56%
                               2          123    382.94%    700.50%
                               4          132    410.96%   1111.46%
                               6          779   2425.28%   3536.74%
                               8           19     59.15%   3595.89%
                              10          133    414.07%   4009.96%
                              12          288    896.64%   4906.60%
                              14          310    965.13%   5871.73%
                              16          530   1650.06%   7521.79%
                              18            0      0.00%   7521.79%
                              20            0      0.00%   7521.79%
                              22            0      0.00%   7521.79%
                              24            0      0.00%   7521.79%
                              26            1      3.11%   7524.91%
                              28            0      0.00%   7524.91%
                              30            0      0.00%   7524.91%
                              32            2      6.23%   7531.13%
                              34           41    127.65%   7658.78%
                              36          534   1662.52%   9321.30%
                              38          207    644.46%   9965.75%
                              40            1      3.11%   9968.87%
                              42            1      3.11%   9971.98%
                              44            0      0.00%   9971.98%
                              46            0      0.00%   9971.98%
                              48            0      0.00%   9971.98%
                              50            0      0.00%   9971.98%
                              52            2      6.23%   9978.21%
                              54            0      0.00%   9978.21%
                              56            0      0.00%   9978.21%
                              58            0      0.00%   9978.21%
                              60            0      0.00%   9978.21%
                              62            0      0.00%   9978.21%
                              64            1      3.11%   9981.32%
                              66            0      0.00%   9981.32%
                              68            0      0.00%   9981.32%
                              70            0      0.00%   9981.32%
                              72            0      0.00%   9981.32%
                              74            1      3.11%   9984.43%
                              76            1      3.11%   9987.55%
                              78            0      0.00%   9987.55%
                              80            1      3.11%   9990.66%
                              82            0      0.00%   9990.66%
                              84            3      9.34%  10000.00%
                              86            0      0.00%  10000.00%
                              88            0      0.00%  10000.00%
                              90            0      0.00%  10000.00%
                              92            0      0.00%  10000.00%
                              94            0      0.00%  10000.00%
                              96            0      0.00%  10000.00%
                              98            0      0.00%  10000.00%
system.cpu0.IQ:residence:FloatAdd.max_value           85                      
system.cpu0.IQ:residence:FloatAdd.end_dist

system.cpu0.IQ:residence:FloatCmp.start_dist
system.cpu0.IQ:residence:FloatCmp.samples            0                      
system.cpu0.IQ:residence:FloatCmp.min_value            0                      
                               0            0                      
                               2            0                      
                               4            0                      
                               6            0                      
                               8            0                      
                              10            0                      
                              12            0                      
                              14            0                      
                              16            0                      
                              18            0                      
                              20            0                      
                              22            0                      
                              24            0                      
                              26            0                      
                              28            0                      
                              30            0                      
                              32            0                      
                              34            0                      
                              36            0                      
                              38            0                      
                              40            0                      
                              42            0                      
                              44            0                      
                              46            0                      
                              48            0                      
                              50            0                      
                              52            0                      
                              54            0                      
                              56            0                      
                              58            0                      
                              60            0                      
                              62            0                      
                              64            0                      
                              66            0                      
                              68            0                      
                              70            0                      
                              72            0                      
                              74            0                      
                              76            0                      
                              78            0                      
                              80            0                      
                              82            0                      
                              84            0                      
                              86            0                      
                              88            0                      
                              90            0                      
                              92            0                      
                              94            0                      
                              96            0                      
                              98            0                      
system.cpu0.IQ:residence:FloatCmp.max_value            0                      
system.cpu0.IQ:residence:FloatCmp.end_dist

system.cpu0.IQ:residence:FloatCvt.start_dist
system.cpu0.IQ:residence:FloatCvt.samples            0                      
system.cpu0.IQ:residence:FloatCvt.min_value            0                      
                               0            0                      
                               2            0                      
                               4            0                      
                               6            0                      
                               8            0                      
                              10            0                      
                              12            0                      
                              14            0                      
                              16            0                      
                              18            0                      
                              20            0                      
                              22            0                      
                              24            0                      
                              26            0                      
                              28            0                      
                              30            0                      
                              32            0                      
                              34            0                      
                              36            0                      
                              38            0                      
                              40            0                      
                              42            0                      
                              44            0                      
                              46            0                      
                              48            0                      
                              50            0                      
                              52            0                      
                              54            0                      
                              56            0                      
                              58            0                      
                              60            0                      
                              62            0                      
                              64            0                      
                              66            0                      
                              68            0                      
                              70            0                      
                              72            0                      
                              74            0                      
                              76            0                      
                              78            0                      
                              80            0                      
                              82            0                      
                              84            0                      
                              86            0                      
                              88            0                      
                              90            0                      
                              92            0                      
                              94            0                      
                              96            0                      
                              98            0                      
system.cpu0.IQ:residence:FloatCvt.max_value            0                      
system.cpu0.IQ:residence:FloatCvt.end_dist

system.cpu0.IQ:residence:FloatMult.start_dist
system.cpu0.IQ:residence:FloatMult.samples            2                      
system.cpu0.IQ:residence:FloatMult.min_value           79                      
                               0            0      0.00%      0.00%
                               2            0      0.00%      0.00%
                               4            0      0.00%      0.00%
                               6            0      0.00%      0.00%
                               8            0      0.00%      0.00%
                              10            0      0.00%      0.00%
                              12            0      0.00%      0.00%
                              14            0      0.00%      0.00%
                              16            0      0.00%      0.00%
                              18            0      0.00%      0.00%
                              20            0      0.00%      0.00%
                              22            0      0.00%      0.00%
                              24            0      0.00%      0.00%
                              26            0      0.00%      0.00%
                              28            0      0.00%      0.00%
                              30            0      0.00%      0.00%
                              32            0      0.00%      0.00%
                              34            0      0.00%      0.00%
                              36            0      0.00%      0.00%
                              38            0      0.00%      0.00%
                              40            0      0.00%      0.00%
                              42            0      0.00%      0.00%
                              44            0      0.00%      0.00%
                              46            0      0.00%      0.00%
                              48            0      0.00%      0.00%
                              50            0      0.00%      0.00%
                              52            0      0.00%      0.00%
                              54            0      0.00%      0.00%
                              56            0      0.00%      0.00%
                              58            0      0.00%      0.00%
                              60            0      0.00%      0.00%
                              62            0      0.00%      0.00%
                              64            0      0.00%      0.00%
                              66            0      0.00%      0.00%
                              68            0      0.00%      0.00%
                              70            0      0.00%      0.00%
                              72            0      0.00%      0.00%
                              74            0      0.00%      0.00%
                              76            0      0.00%      0.00%
                              78            1   5000.00%   5000.00%
                              80            0      0.00%   5000.00%
                              82            0      0.00%   5000.00%
                              84            0      0.00%   5000.00%
                              86            0      0.00%   5000.00%
                              88            0      0.00%   5000.00%
                              90            0      0.00%   5000.00%
                              92            0      0.00%   5000.00%
                              94            0      0.00%   5000.00%
                              96            0      0.00%   5000.00%
                              98            0      0.00%   5000.00%
system.cpu0.IQ:residence:FloatMult.overflows            1                      
system.cpu0.IQ:residence:FloatMult.max_value          102                      
system.cpu0.IQ:residence:FloatMult.end_dist

system.cpu0.IQ:residence:FloatDiv.start_dist
system.cpu0.IQ:residence:FloatDiv.samples           62                      
system.cpu0.IQ:residence:FloatDiv.min_value            6                      
                               0            0      0.00%      0.00%
                               2            0      0.00%      0.00%
                               4            0      0.00%      0.00%
                               6           61   9838.71%   9838.71%
                               8            0      0.00%   9838.71%
                              10            0      0.00%   9838.71%
                              12            0      0.00%   9838.71%
                              14            0      0.00%   9838.71%
                              16            0      0.00%   9838.71%
                              18            0      0.00%   9838.71%
                              20            0      0.00%   9838.71%
                              22            0      0.00%   9838.71%
                              24            0      0.00%   9838.71%
                              26            0      0.00%   9838.71%
                              28            0      0.00%   9838.71%
                              30            0      0.00%   9838.71%
                              32            0      0.00%   9838.71%
                              34            0      0.00%   9838.71%
                              36            0      0.00%   9838.71%
                              38            0      0.00%   9838.71%
                              40            0      0.00%   9838.71%
                              42            0      0.00%   9838.71%
                              44            0      0.00%   9838.71%
                              46            0      0.00%   9838.71%
                              48            0      0.00%   9838.71%
                              50            0      0.00%   9838.71%
                              52            0      0.00%   9838.71%
                              54            1    161.29%  10000.00%
                              56            0      0.00%  10000.00%
                              58            0      0.00%  10000.00%
                              60            0      0.00%  10000.00%
                              62            0      0.00%  10000.00%
                              64            0      0.00%  10000.00%
                              66            0      0.00%  10000.00%
                              68            0      0.00%  10000.00%
                              70            0      0.00%  10000.00%
                              72            0      0.00%  10000.00%
                              74            0      0.00%  10000.00%
                              76            0      0.00%  10000.00%
                              78            0      0.00%  10000.00%
                              80            0      0.00%  10000.00%
                              82            0      0.00%  10000.00%
                              84            0      0.00%  10000.00%
                              86            0      0.00%  10000.00%
                              88            0      0.00%  10000.00%
                              90            0      0.00%  10000.00%
                              92            0      0.00%  10000.00%
                              94            0      0.00%  10000.00%
                              96            0      0.00%  10000.00%
                              98            0      0.00%  10000.00%
system.cpu0.IQ:residence:FloatDiv.max_value           54                      
system.cpu0.IQ:residence:FloatDiv.end_dist

system.cpu0.IQ:residence:FloatSqrt.start_dist
system.cpu0.IQ:residence:FloatSqrt.samples            0                      
system.cpu0.IQ:residence:FloatSqrt.min_value            0                      
                               0            0                      
                               2            0                      
                               4            0                      
                               6            0                      
                               8            0                      
                              10            0                      
                              12            0                      
                              14            0                      
                              16            0                      
                              18            0                      
                              20            0                      
                              22            0                      
                              24            0                      
                              26            0                      
                              28            0                      
                              30            0                      
                              32            0                      
                              34            0                      
                              36            0                      
                              38            0                      
                              40            0                      
                              42            0                      
                              44            0                      
                              46            0                      
                              48            0                      
                              50            0                      
                              52            0                      
                              54            0                      
                              56            0                      
                              58            0                      
                              60            0                      
                              62            0                      
                              64            0                      
                              66            0                      
                              68            0                      
                              70            0                      
                              72            0                      
                              74            0                      
                              76            0                      
                              78            0                      
                              80            0                      
                              82            0                      
                              84            0                      
                              86            0                      
                              88            0                      
                              90            0                      
                              92            0                      
                              94            0                      
                              96            0                      
                              98            0                      
system.cpu0.IQ:residence:FloatSqrt.max_value            0                      
system.cpu0.IQ:residence:FloatSqrt.end_dist

system.cpu0.IQ:residence:MemRead.start_dist
system.cpu0.IQ:residence:MemRead.samples     26858565                      
system.cpu0.IQ:residence:MemRead.min_value            1                      
                               0      2423149    902.19%    902.19%
                               2      3723402   1386.30%   2288.49%
                               4      1891233    704.15%   2992.63%
                               6      1606642    598.19%   3590.82%
                               8      1294653    482.03%   4072.85%
                              10      1134963    422.57%   4495.42%
                              12       958064    356.71%   4852.12%
                              14       895934    333.57%   5185.70%
                              16       975629    363.25%   5548.94%
                              18      1528842    569.22%   6118.16%
                              20      2334686    869.25%   6987.42%
                              22      2638848    982.50%   7969.91%
                              24       799200    297.56%   8267.47%
                              26       184274     68.61%   8336.08%
                              28       154617     57.57%   8393.65%
                              30       111332     41.45%   8435.10%
                              32       111726     41.60%   8476.70%
                              34       167094     62.21%   8538.91%
                              36       166920     62.15%   8601.06%
                              38       178450     66.44%   8667.50%
                              40       100834     37.54%   8705.04%
                              42       103989     38.72%   8743.76%
                              44        82040     30.55%   8774.30%
                              46       126813     47.22%   8821.52%
                              48        38147     14.20%   8835.72%
                              50        85032     31.66%   8867.38%
                              52        33783     12.58%   8879.96%
                              54        41134     15.32%   8895.27%
                              56        21244      7.91%   8903.18%
                              58        23901      8.90%   8912.08%
                              60        52767     19.65%   8931.73%
                              62        34552     12.86%   8944.59%
                              64        97263     36.21%   8980.81%
                              66        13321      4.96%   8985.77%
                              68        13069      4.87%   8990.63%
                              70        11344      4.22%   8994.86%
                              72        15129      5.63%   9000.49%
                              74        17074      6.36%   9006.85%
                              76        15508      5.77%   9012.62%
                              78        21653      8.06%   9020.68%
                              80        13887      5.17%   9025.85%
                              82        11600      4.32%   9030.17%
                              84        14987      5.58%   9035.75%
                              86        21814      8.12%   9043.87%
                              88         9672      3.60%   9047.47%
                              90        10807      4.02%   9051.50%
                              92        10931      4.07%   9055.57%
                              94        14294      5.32%   9060.89%
                              96        14830      5.52%   9066.41%
                              98         5169      1.92%   9068.33%
system.cpu0.IQ:residence:MemRead.overflows      2502319                      
system.cpu0.IQ:residence:MemRead.max_value        20542                      
system.cpu0.IQ:residence:MemRead.end_dist

system.cpu0.IQ:residence:MemWrite.start_dist
system.cpu0.IQ:residence:MemWrite.samples     15368720                      
system.cpu0.IQ:residence:MemWrite.min_value            1                      
                               0      1127070    733.35%    733.35%
                               2      2316299   1507.15%   2240.50%
                               4      1460779    950.49%   3190.99%
                               6      1159963    754.76%   3945.75%
                               8       956941    622.65%   4568.40%
                              10       613092    398.92%   4967.33%
                              12       536248    348.92%   5316.25%
                              14       488266    317.70%   5633.95%
                              16       577442    375.73%   6009.67%
                              18       853217    555.16%   6564.84%
                              20      1216057    791.25%   7356.09%
                              22      1497343    974.28%   8330.37%
                              24       738182    480.31%   8810.69%
                              26       196662    127.96%   8938.65%
                              28       140334     91.31%   9029.96%
                              30        87752     57.10%   9087.06%
                              32       122569     79.75%   9166.81%
                              34       103614     67.42%   9234.23%
                              36       124013     80.69%   9314.92%
                              38        95515     62.15%   9377.07%
                              40        83086     54.06%   9431.13%
                              42        71621     46.60%   9477.73%
                              44        56393     36.69%   9514.43%
                              46        46673     30.37%   9544.80%
                              48        39984     26.02%   9570.81%
                              50       126520     82.32%   9653.14%
                              52        32463     21.12%   9674.26%
                              54        19972     13.00%   9687.25%
                              56        23045     14.99%   9702.25%
                              58         9747      6.34%   9708.59%
                              60        22134     14.40%   9722.99%
                              62        50396     32.79%   9755.78%
                              64       111840     72.77%   9828.56%
                              66         7615      4.95%   9833.51%
                              68         7227      4.70%   9838.21%
                              70         8487      5.52%   9843.74%
                              72        10659      6.94%   9850.67%
                              74        11527      7.50%   9858.17%
                              76        12615      8.21%   9866.38%
                              78        17646     11.48%   9877.86%
                              80        14113      9.18%   9887.04%
                              82         7972      5.19%   9892.23%
                              84         6013      3.91%   9896.14%
                              86         5110      3.32%   9899.47%
                              88         4611      3.00%   9902.47%
                              90         7618      4.96%   9907.43%
                              92         6828      4.44%   9911.87%
                              94         3611      2.35%   9914.22%
                              96         2203      1.43%   9915.65%
                              98         3977      2.59%   9918.24%
system.cpu0.IQ:residence:MemWrite.overflows       125656                      
system.cpu0.IQ:residence:MemWrite.max_value        20547                      
system.cpu0.IQ:residence:MemWrite.end_dist

system.cpu0.IQ:residence:IprAccess.start_dist
system.cpu0.IQ:residence:IprAccess.samples       829308                      
system.cpu0.IQ:residence:IprAccess.min_value            1                      
                               0       177836   2144.39%   2144.39%
                               2       142483   1718.10%   3862.49%
                               4        48268    582.03%   4444.51%
                               6       156234   1883.91%   6328.42%
                               8       128129   1545.01%   7873.43%
                              10        39515    476.48%   8349.91%
                              12        25829    311.45%   8661.37%
                              14        19063    229.87%   8891.23%
                              16        22657    273.20%   9164.44%
                              18        13323    160.65%   9325.09%
                              20        12303    148.35%   9473.44%
                              22         9921    119.63%   9593.07%
                              24         6167     74.36%   9667.43%
                              26         3815     46.00%   9713.44%
                              28         4533     54.66%   9768.10%
                              30         1571     18.94%   9787.04%
                              32          845     10.19%   9797.23%
                              34         1090     13.14%   9810.37%
                              36         2152     25.95%   9836.32%
                              38         2251     27.14%   9863.46%
                              40          491      5.92%   9869.39%
                              42          187      2.25%   9871.64%
                              44          405      4.88%   9876.52%
                              46          341      4.11%   9880.64%
                              48          640      7.72%   9888.35%
                              50          579      6.98%   9895.33%
                              52          461      5.56%   9900.89%
                              54          224      2.70%   9903.59%
                              56          272      3.28%   9906.87%
                              58         1552     18.71%   9925.59%
                              60          443      5.34%   9930.93%
                              62          357      4.30%   9935.24%
                              64          545      6.57%   9941.81%
                              66          288      3.47%   9945.28%
                              68          194      2.34%   9947.62%
                              70          174      2.10%   9949.72%
                              72          267      3.22%   9952.94%
                              74          170      2.05%   9954.99%
                              76          333      4.02%   9959.00%
                              78          339      4.09%   9963.09%
                              80          273      3.29%   9966.38%
                              82          154      1.86%   9968.24%
                              84          145      1.75%   9969.99%
                              86          299      3.61%   9973.59%
                              88          183      2.21%   9975.80%
                              90          388      4.68%   9980.48%
                              92           77      0.93%   9981.41%
                              94          104      1.25%   9982.66%
                              96           53      0.64%   9983.30%
                              98           75      0.90%   9984.20%
system.cpu0.IQ:residence:IprAccess.overflows         1310                      
system.cpu0.IQ:residence:IprAccess.max_value          316                      
system.cpu0.IQ:residence:IprAccess.end_dist

system.cpu0.IQ:residence:InstPrefetch.start_dist
system.cpu0.IQ:residence:InstPrefetch.samples            0                      
system.cpu0.IQ:residence:InstPrefetch.min_value            0                      
                               0            0                      
                               2            0                      
                               4            0                      
                               6            0                      
                               8            0                      
                              10            0                      
                              12            0                      
                              14            0                      
                              16            0                      
                              18            0                      
                              20            0                      
                              22            0                      
                              24            0                      
                              26            0                      
                              28            0                      
                              30            0                      
                              32            0                      
                              34            0                      
                              36            0                      
                              38            0                      
                              40            0                      
                              42            0                      
                              44            0                      
                              46            0                      
                              48            0                      
                              50            0                      
                              52            0                      
                              54            0                      
                              56            0                      
                              58            0                      
                              60            0                      
                              62            0                      
                              64            0                      
                              66            0                      
                              68            0                      
                              70            0                      
                              72            0                      
                              74            0                      
                              76            0                      
                              78            0                      
                              80            0                      
                              82            0                      
                              84            0                      
                              86            0                      
                              88            0                      
                              90            0                      
                              92            0                      
                              94            0                      
                              96            0                      
                              98            0                      
system.cpu0.IQ:residence:InstPrefetch.max_value            0                      
system.cpu0.IQ:residence:InstPrefetch.end_dist

system.cpu0.ISSUE:(null)_delay.start_dist 
system.cpu0.ISSUE:(null)_delay.samples           5385                      
system.cpu0.ISSUE:(null)_delay.min_value            1                      
                               0         4864   9032.50%   9032.50%
                               2          336    623.96%   9656.45%
                               4           84    155.99%   9812.44%
                               6           19     35.28%   9847.73%
                               8           57    105.85%   9953.57%
                              10            3      5.57%   9959.15%
                              12            1      1.86%   9961.00%
                              14            1      1.86%   9962.86%
                              16            9     16.71%   9979.57%
                              18            7     13.00%   9992.57%
                              20            3      5.57%   9998.14%
                              22            1      1.86%  10000.00%
                              24            0      0.00%  10000.00%
                              26            0      0.00%  10000.00%
                              28            0      0.00%  10000.00%
                              30            0      0.00%  10000.00%
                              32            0      0.00%  10000.00%
                              34            0      0.00%  10000.00%
                              36            0      0.00%  10000.00%
                              38            0      0.00%  10000.00%
                              40            0      0.00%  10000.00%
                              42            0      0.00%  10000.00%
                              44            0      0.00%  10000.00%
                              46            0      0.00%  10000.00%
                              48            0      0.00%  10000.00%
                              50            0      0.00%  10000.00%
                              52            0      0.00%  10000.00%
                              54            0      0.00%  10000.00%
                              56            0      0.00%  10000.00%
                              58            0      0.00%  10000.00%
                              60            0      0.00%  10000.00%
                              62            0      0.00%  10000.00%
                              64            0      0.00%  10000.00%
                              66            0      0.00%  10000.00%
                              68            0      0.00%  10000.00%
                              70            0      0.00%  10000.00%
                              72            0      0.00%  10000.00%
                              74            0      0.00%  10000.00%
                              76            0      0.00%  10000.00%
                              78            0      0.00%  10000.00%
                              80            0      0.00%  10000.00%
                              82            0      0.00%  10000.00%
                              84            0      0.00%  10000.00%
                              86            0      0.00%  10000.00%
                              88            0      0.00%  10000.00%
                              90            0      0.00%  10000.00%
                              92            0      0.00%  10000.00%
                              94            0      0.00%  10000.00%
                              96            0      0.00%  10000.00%
                              98            0      0.00%  10000.00%
system.cpu0.ISSUE:(null)_delay.max_value           23                      
system.cpu0.ISSUE:(null)_delay.end_dist

system.cpu0.ISSUE:IntAlu_delay.start_dist 
system.cpu0.ISSUE:IntAlu_delay.samples       52898148                      
system.cpu0.ISSUE:IntAlu_delay.min_value            0                      
                               0     45317685   8566.97%   8566.97%
                               2      3674252    694.59%   9261.56%
                               4      1268281    239.76%   9501.32%
                               6       579267    109.51%   9610.83%
                               8       347071     65.61%   9676.44%
                              10       251914     47.62%   9724.06%
                              12       233787     44.20%   9768.25%
                              14       301627     57.02%   9825.27%
                              16       242264     45.80%   9871.07%
                              18       275792     52.14%   9923.21%
                              20       212303     40.13%   9963.34%
                              22       183762     34.74%   9998.08%
                              24        10143      1.92%  10000.00%
                              26            0      0.00%  10000.00%
                              28            0      0.00%  10000.00%
                              30            0      0.00%  10000.00%
                              32            0      0.00%  10000.00%
                              34            0      0.00%  10000.00%
                              36            0      0.00%  10000.00%
                              38            0      0.00%  10000.00%
                              40            0      0.00%  10000.00%
                              42            0      0.00%  10000.00%
                              44            0      0.00%  10000.00%
                              46            0      0.00%  10000.00%
                              48            0      0.00%  10000.00%
                              50            0      0.00%  10000.00%
                              52            0      0.00%  10000.00%
                              54            0      0.00%  10000.00%
                              56            0      0.00%  10000.00%
                              58            0      0.00%  10000.00%
                              60            0      0.00%  10000.00%
                              62            0      0.00%  10000.00%
                              64            0      0.00%  10000.00%
                              66            0      0.00%  10000.00%
                              68            0      0.00%  10000.00%
                              70            0      0.00%  10000.00%
                              72            0      0.00%  10000.00%
                              74            0      0.00%  10000.00%
                              76            0      0.00%  10000.00%
                              78            0      0.00%  10000.00%
                              80            0      0.00%  10000.00%
                              82            0      0.00%  10000.00%
                              84            0      0.00%  10000.00%
                              86            0      0.00%  10000.00%
                              88            0      0.00%  10000.00%
                              90            0      0.00%  10000.00%
                              92            0      0.00%  10000.00%
                              94            0      0.00%  10000.00%
                              96            0      0.00%  10000.00%
                              98            0      0.00%  10000.00%
system.cpu0.ISSUE:IntAlu_delay.max_value           24                      
system.cpu0.ISSUE:IntAlu_delay.end_dist

system.cpu0.ISSUE:IntMult_delay.start_dist
system.cpu0.ISSUE:IntMult_delay.samples        348242                      
system.cpu0.ISSUE:IntMult_delay.min_value            0                      
                               0       249916   7176.50%   7176.50%
                               2        50318   1444.91%   8621.42%
                               4        23007    660.66%   9282.08%
                               6         7010    201.30%   9483.38%
                               8         1342     38.54%   9521.91%
                              10         2336     67.08%   9588.99%
                              12         1873     53.78%   9642.78%
                              14         2791     80.15%   9722.92%
                              16          994     28.54%   9751.47%
                              18         2513     72.16%   9823.63%
                              20         3142     90.22%   9913.85%
                              22         2171     62.34%   9976.19%
                              24          829     23.81%  10000.00%
                              26            0      0.00%  10000.00%
                              28            0      0.00%  10000.00%
                              30            0      0.00%  10000.00%
                              32            0      0.00%  10000.00%
                              34            0      0.00%  10000.00%
                              36            0      0.00%  10000.00%
                              38            0      0.00%  10000.00%
                              40            0      0.00%  10000.00%
                              42            0      0.00%  10000.00%
                              44            0      0.00%  10000.00%
                              46            0      0.00%  10000.00%
                              48            0      0.00%  10000.00%
                              50            0      0.00%  10000.00%
                              52            0      0.00%  10000.00%
                              54            0      0.00%  10000.00%
                              56            0      0.00%  10000.00%
                              58            0      0.00%  10000.00%
                              60            0      0.00%  10000.00%
                              62            0      0.00%  10000.00%
                              64            0      0.00%  10000.00%
                              66            0      0.00%  10000.00%
                              68            0      0.00%  10000.00%
                              70            0      0.00%  10000.00%
                              72            0      0.00%  10000.00%
                              74            0      0.00%  10000.00%
                              76            0      0.00%  10000.00%
                              78            0      0.00%  10000.00%
                              80            0      0.00%  10000.00%
                              82            0      0.00%  10000.00%
                              84            0      0.00%  10000.00%
                              86            0      0.00%  10000.00%
                              88            0      0.00%  10000.00%
                              90            0      0.00%  10000.00%
                              92            0      0.00%  10000.00%
                              94            0      0.00%  10000.00%
                              96            0      0.00%  10000.00%
                              98            0      0.00%  10000.00%
system.cpu0.ISSUE:IntMult_delay.max_value           24                      
system.cpu0.ISSUE:IntMult_delay.end_dist

system.cpu0.ISSUE:IntDiv_delay.start_dist 
system.cpu0.ISSUE:IntDiv_delay.samples              0                      
system.cpu0.ISSUE:IntDiv_delay.min_value            0                      
                               0            0                      
                               2            0                      
                               4            0                      
                               6            0                      
                               8            0                      
                              10            0                      
                              12            0                      
                              14            0                      
                              16            0                      
                              18            0                      
                              20            0                      
                              22            0                      
                              24            0                      
                              26            0                      
                              28            0                      
                              30            0                      
                              32            0                      
                              34            0                      
                              36            0                      
                              38            0                      
                              40            0                      
                              42            0                      
                              44            0                      
                              46            0                      
                              48            0                      
                              50            0                      
                              52            0                      
                              54            0                      
                              56            0                      
                              58            0                      
                              60            0                      
                              62            0                      
                              64            0                      
                              66            0                      
                              68            0                      
                              70            0                      
                              72            0                      
                              74            0                      
                              76            0                      
                              78            0                      
                              80            0                      
                              82            0                      
                              84            0                      
                              86            0                      
                              88            0                      
                              90            0                      
                              92            0                      
                              94            0                      
                              96            0                      
                              98            0                      
system.cpu0.ISSUE:IntDiv_delay.max_value            0                      
system.cpu0.ISSUE:IntDiv_delay.end_dist

system.cpu0.ISSUE:FloatAdd_delay.start_dist
system.cpu0.ISSUE:FloatAdd_delay.samples         3212                      
system.cpu0.ISSUE:FloatAdd_delay.min_value            0                      
                               0         1723   5364.26%   5364.26%
                               2          123    382.94%   5747.20%
                               4            2      6.23%   5753.42%
                               6          157    488.79%   6242.22%
                               8           19     59.15%   6301.37%
                              10          133    414.07%   6715.44%
                              12          287    893.52%   7608.97%
                              14          302    940.22%   8549.19%
                              16          466   1450.81%  10000.00%
                              18            0      0.00%  10000.00%
                              20            0      0.00%  10000.00%
                              22            0      0.00%  10000.00%
                              24            0      0.00%  10000.00%
                              26            0      0.00%  10000.00%
                              28            0      0.00%  10000.00%
                              30            0      0.00%  10000.00%
                              32            0      0.00%  10000.00%
                              34            0      0.00%  10000.00%
                              36            0      0.00%  10000.00%
                              38            0      0.00%  10000.00%
                              40            0      0.00%  10000.00%
                              42            0      0.00%  10000.00%
[...]
system.cpu1.kern.mode_good_idle                     0                      
system.cpu1.kern.mode_good_interrupt                0                      
system.cpu1.kern.mode_switch_kernel             17151                      
system.cpu1.kern.mode_switch_user                1089                      
system.cpu1.kern.mode_switch_idle                   0                      
system.cpu1.kern.mode_switch_interrupt              0                      
system.cpu1.kern.mode_switch_good            0.119353                      
system.cpu1.kern.mode_switch_good_kernel     0.063437                      
system.cpu1.kern.mode_switch_good_user              1                      
system.cpu1.kern.mode_switch_good_idle   <err: div-0>                      
system.cpu1.kern.mode_switch_good_interrupt <err: div-0>                      
system.cpu1.kern.mode_ticks_kernel         1383300947     99.76%     99.76%
system.cpu1.kern.mode_ticks_user              3269607      0.24%    100.00%
system.cpu1.kern.mode_ticks_idle                    0      0.00%    100.00%
system.cpu1.kern.mode_ticks_interrupt               0      0.00%    100.00%
system.cpu1.kern.swap_context                    3401                      
system.cpu1.kern.syscall                          233                      
system.cpu1.kern.syscall_fork                       3      1.29%      1.29%
system.cpu1.kern.syscall_read                      17      7.30%      8.58%
system.cpu1.kern.syscall_write                      3      1.29%      9.87%
system.cpu1.kern.syscall_close                     20      8.58%     18.45%
system.cpu1.kern.syscall_chmod                      1      0.43%     18.88%
system.cpu1.kern.syscall_obreak                    23      9.87%     28.76%
system.cpu1.kern.syscall_lseek                      5      2.15%     30.90%
system.cpu1.kern.syscall_getpid                     2      0.86%     31.76%
system.cpu1.kern.syscall_setuid                     2      0.86%     32.62%
system.cpu1.kern.syscall_getuid                     6      2.58%     35.19%
system.cpu1.kern.syscall_open                      40     17.17%     52.36%
system.cpu1.kern.syscall_getgid                     6      2.58%     54.94%
system.cpu1.kern.syscall_sigprocmask                5      2.15%     57.08%
system.cpu1.kern.syscall_ioctl                      6      2.58%     59.66%
system.cpu1.kern.syscall_readlink                   2      0.86%     60.52%
system.cpu1.kern.syscall_execve                     2      0.86%     61.37%
system.cpu1.kern.syscall_pre_F64_stat              13      5.58%     66.95%
system.cpu1.kern.syscall_pre_F64_lstat              1      0.43%     67.38%
system.cpu1.kern.syscall_mmap                      35     15.02%     82.40%
system.cpu1.kern.syscall_munmap                     4      1.72%     84.12%
system.cpu1.kern.syscall_mprotect                   9      3.86%     87.98%
system.cpu1.kern.syscall_gethostname                2      0.86%     88.84%
system.cpu1.kern.syscall_dup2                       1      0.43%     89.27%
system.cpu1.kern.syscall_pre_F64_fstat             17      7.30%     96.57%
system.cpu1.kern.syscall_fcntl                      3      1.29%     97.85%
system.cpu1.kern.syscall_socket                     1      0.43%     98.28%
system.cpu1.kern.syscall_connect                    1      0.43%     98.71%
system.cpu1.kern.syscall_setgid                     2      0.86%     99.57%
system.cpu1.kern.syscall_getrlimit                  1      0.43%    100.00%
system.cpu1.numCycles                      1386307797                      
system.cpu1inst_class_dist.start_dist
                   All ops ready            0      0.00%           
                One op not ready            0      0.00%           
           None rdy, mult chains            0      0.00%           
           None rdy, one chained            0      0.00%           
        None rdy, all self-timed            0      0.00%           
system.cpu1inst_class_dist.end_dist
system.htbus.addr_idle_cycles              1385575929                      
system.htbus.addr_idle_fraction              0.999281                      
system.htbus.addr_queued                    41.461938                      
system.htbus.addr_queued_cycles               5613366                      
system.htbus.addr_requests                     135386                      
system.htbus.bus_blocked                            0                      
system.htbus.bus_blocked_cycles                     0                      
system.htbus.bus_blocked_fraction                   0                      
system.htbus.data_idle_cycles              1385474333                      
system.htbus.data_idle_fraction              0.999208                      
system.htbus.data_queued                            1                      
system.htbus.data_queued_cycles                  8780                      
system.htbus.data_requests                       8780                      
system.htbus.null_grants                            0                      
system.kern.fnCalls                                 0                      
system.l2.avg_blocked_cycles_no_mshrs    <err: div-0>                      
system.l2.avg_blocked_cycles_no_targets  <err: div-0>                      
system.l2.avg_refs                           2.395587                      
system.l2.blocked_no_mshrs                          0                      
system.l2.blocked_no_targets                        0                      
system.l2.blocked_cycles_no_mshrs                   0                      
system.l2.blocked_cycles_no_targets                 0                      
system.l2.cache_copies                              0                      
system.l2.demand_accesses                     2930278                      
system.l2.demand_avg_miss_latency           69.370302                      
system.l2.demand_avg_mshr_miss_latency      39.434941                      
system.l2.demand_hits                         1886747                      
system.l2.demand_miss_latency                72390061                      
system.l2.demand_miss_rate                   0.356120                      
system.l2.demand_misses                       1043531                      
system.l2.demand_mshr_hits                          5                      
system.l2.demand_mshr_miss_latency           41151386                      
system.l2.demand_mshr_miss_rate              0.356118                      
system.l2.demand_mshr_misses                  1043526                      
system.l2.fast_writes                               0                      
system.l2.mshr_cap_events                           0                      
system.l2.no_allocate_misses                        0                      
system.l2.overall_accesses                    3624721                      
system.l2.overall_avg_miss_latency          69.347243                      
system.l2.overall_avg_mshr_miss_latency     39.434941                      
system.l2.overall_avg_mshr_uncacheable_latency   217.129287                      
system.l2.overall_hits                        2580843                      
system.l2.overall_miss_latency               72390061                      
system.l2.overall_miss_rate                  0.287989                      
system.l2.overall_misses                      1043878                      
system.l2.overall_mshr_hits                         5                      
system.l2.overall_mshr_miss_latency          41151386                      
system.l2.overall_mshr_miss_rate             0.287891                      
system.l2.overall_mshr_misses                 1043526                      
system.l2.overall_mshr_uncacheable_latency      5799089                      
system.l2.overall_mshr_uncacheable_misses        26708                      
system.l2.prefetcher.num_hwpf_already_in_cache            0                      
system.l2.prefetcher.num_hwpf_already_in_mshr            0                      
system.l2.prefetcher.num_hwpf_already_in_prefetcher            0                      
system.l2.prefetcher.num_hwpf_evicted               0                      
system.l2.prefetcher.num_hwpf_identified            0                      
system.l2.prefetcher.num_hwpf_issued                0                      
system.l2.prefetcher.num_hwpf_removed_MSHR_hit            0                      
system.l2.prefetcher.num_hwpf_span_page             0                      
system.l2.prefetcher.num_hwpf_squashed_from_miss            0                      
system.l2.readEx_accesses                      422777                      
system.l2.readEx_avg_miss_latency           65.317258                      
system.l2.readEx_avg_mshr_miss_latency      35.546672                      
system.l2.readEx_hits                          273545                      
system.l2.readEx_miss_latency                 9747425                      
system.l2.readEx_miss_rate                   0.352980                      
system.l2.readEx_misses                        149232                      
system.l2.readEx_mshr_miss_latency            5304701                      
system.l2.readEx_mshr_miss_rate              0.352980                      
system.l2.readEx_mshr_misses                   149232                      
system.l2.read_accesses                       2930278                      
system.l2.read_avg_miss_latency             69.370302                      
system.l2.read_avg_mshr_miss_latency        39.434941                      
system.l2.read_avg_mshr_uncacheable_latency   223.832286                      
system.l2.read_hits                           1886747                      
system.l2.read_miss_latency                  72390061                      
system.l2.read_miss_rate                     0.356120                      
system.l2.read_misses                         1043531                      
system.l2.read_mshr_hits                            5                      
system.l2.read_mshr_miss_latency             41151386                      
system.l2.read_mshr_miss_rate                0.356118                      
system.l2.read_mshr_misses                    1043526                      
system.l2.read_mshr_uncacheable                  9862                      
system.l2.read_mshr_uncacheable_latency       2207434                      
system.l2.replacements                        1158694                      
system.l2.sampled_refs                        1191065                      
system.l2.soft_prefetch_mshr_full                   0                      
system.l2.tagsinuse                      32382.234557                      
system.l2.total_refs                          2853300                      
system.l2.warmup_cycle                        3650400                      
system.l2.write_avg_mshr_uncacheable_latency   213.205212                      
system.l2.write_mshr_uncacheable                16846                      
system.l2.write_mshr_uncacheable_latency      3591655                      
system.l2.writeback_accesses                   694443                      
system.l2.writeback_hits                       694096                      
system.l2.writeback_miss_rate                0.000500                      
system.l2.writeback_misses                        347                      
system.l2.writeback_mshr_miss_rate           0.000500                      
system.l2.writeback_mshr_misses                   347                      
system.l2.writebacks                           151586                      
system.l2bus.addr_idle_cycles              1382393520                      
system.l2bus.addr_idle_fraction              0.996986                      
system.l2bus.addr_queued                     4.045246                      
system.l2bus.addr_queued_cycles              16884670                      
system.l2bus.addr_requests                    4173954                      
system.l2bus.bus_blocked                          304                      
system.l2bus.bus_blocked_cycles                136734                      
system.l2bus.bus_blocked_fraction            0.000099                      
system.l2bus.data_idle_cycles              1382479423                      
system.l2bus.data_idle_fraction              0.997048                      
system.l2bus.data_queued                     1.016813                      
system.l2bus.data_queued_cycles               3438307                      
system.l2bus.data_requests                    3381454                      
system.l2bus.null_grants                        34047                      
system.membus.addr_idle_cycles             1385072759                      
system.membus.addr_idle_fraction             0.998919                      
system.membus.addr_queued                   26.396161                      
system.membus.addr_queued_cycles             39543349                      
system.membus.addr_requests                   1498072                      
system.membus.bus_blocked                           0                      
system.membus.bus_blocked_cycles                    0                      
system.membus.bus_blocked_fraction                  0                      
system.membus.data_idle_cycles             1380945288                      
system.membus.data_idle_fraction             0.995942                      
system.membus.data_queued                    2.159848                      
system.membus.data_queued_cycles              2597967                      
system.membus.data_requests                   1202847                      
system.membus.null_grants                           0                      
system.pcibus.addr_idle_cycles             1385227704                      
system.pcibus.addr_idle_fraction             0.999030                      
system.pcibus.addr_queued                  562.124511                      
system.pcibus.addr_queued_cycles             76103789                      
system.pcibus.addr_requests                    135386                      
system.pcibus.bus_blocked                        3426                      
system.pcibus.bus_blocked_cycles               109629                      
system.pcibus.bus_blocked_fraction           0.000079                      
system.pcibus.data_idle_cycles             1384339845                      
system.pcibus.data_idle_fraction             0.998390                      
system.pcibus.data_queued                    3.259339                      
system.pcibus.data_queued_cycles                28617                      
system.pcibus.data_requests                      8780                      
system.pcibus.null_grants                           0                      
system.ram.accesses                           1399718                      
system.ram.bytes_requested                          0                      
system.ram.bytes_sent                               0                      
system.ram.compressed_responses                     0                      
system.tsunami.etherdev0.coalescedRxDesc <err: div-0>                      
system.tsunami.etherdev0.coalescedRxIdle <err: div-0>                      
system.tsunami.etherdev0.coalescedRxOk   <err: div-0>                      
system.tsunami.etherdev0.coalescedRxOrn  <err: div-0>                      
system.tsunami.etherdev0.coalescedSwi    <err: div-0>                      
system.tsunami.etherdev0.coalescedTotal  <err: div-0>                      
system.tsunami.etherdev0.coalescedTxDesc <err: div-0>                      
system.tsunami.etherdev0.coalescedTxIdle <err: div-0>                      
system.tsunami.etherdev0.coalescedTxOk   <err: div-0>                      
system.tsunami.etherdev0.descDMAReads               0                      
system.tsunami.etherdev0.descDMAWrites              0                      
system.tsunami.etherdev0.descDmaReadBytes            0                      
system.tsunami.etherdev0.descDmaWriteBytes            0                      
system.tsunami.etherdev0.dma.avg_large_transaction_latency <err: div-0>                      
system.tsunami.etherdev0.dma.avg_small_transaction_latency <err: div-0>                      
system.tsunami.etherdev0.dma.avg_transaction_latency <err: div-0>                      
system.tsunami.etherdev0.dma.bytes_transfered            0                      
system.tsunami.etherdev0.dma.large_transaction_latency            0                      
system.tsunami.etherdev0.dma.large_transactions            0                      
system.tsunami.etherdev0.dma.packets_sent            0                      
system.tsunami.etherdev0.dma.requests               0                      
system.tsunami.etherdev0.dma.round_trip_latency <err: div-0>                      
system.tsunami.etherdev0.dma.small_transaction_latency            0                      
system.tsunami.etherdev0.dma.small_transactions            0                      
system.tsunami.etherdev0.dma.total_cycle_latency            0                      
system.tsunami.etherdev0.dma.transaction_latency            0                      
system.tsunami.etherdev0.droppedPackets             0                      
system.tsunami.etherdev0.postedInterrupts            0                      
system.tsunami.etherdev0.postedRxDesc               0                      
system.tsunami.etherdev0.postedRxIdle               0                      
system.tsunami.etherdev0.postedRxOk                 0                      
system.tsunami.etherdev0.postedRxOrn                0                      
system.tsunami.etherdev0.postedSwi                  0                      
system.tsunami.etherdev0.postedTxDesc               0                      
system.tsunami.etherdev0.postedTxIdle               0                      
system.tsunami.etherdev0.postedTxOk                 0                      
system.tsunami.etherdev0.totalRxDesc                0                      
system.tsunami.etherdev0.totalRxIdle                0                      
system.tsunami.etherdev0.totalRxOk                  0                      
system.tsunami.etherdev0.totalRxOrn                 0                      
system.tsunami.etherdev0.totalSwi                   0                      
system.tsunami.etherdev0.totalTxDesc                0                      
system.tsunami.etherdev0.totalTxIdle                0                      
system.tsunami.etherdev0.totalTxOk                  0                      
system.tsunami.ide.dma.avg_large_transaction_latency  2838.346080                      
system.tsunami.ide.dma.avg_small_transaction_latency   254.824645                      
system.tsunami.ide.dma.avg_transaction_latency  2095.671662                      
system.tsunami.ide.dma.bytes_transfered       3521032                      
system.tsunami.ide.dma.large_transaction_latency      1484455                      
system.tsunami.ide.dma.large_transactions          523                      
system.tsunami.ide.dma.packets_sent             55027                      
system.tsunami.ide.dma.requests                   734                      
system.tsunami.ide.dma.round_trip_latency  1597.314173                      
system.tsunami.ide.dma.small_transaction_latency        53768                      
system.tsunami.ide.dma.small_transactions          211                      
system.tsunami.ide.dma.total_cycle_latency     87895407                      
system.tsunami.ide.dma.transaction_latency      1538223                      

---------- End Simulation Statistics   ----------
