system.cpu0.POWER.DYNAMIC:bpred_block_average     0.241464                      
system.cpu0.POWER.DYNAMIC:dcache_block_average     0.656963                      
system.cpu0.POWER.DYNAMIC:dtlb_block_average     0.007610                      
system.cpu0.POWER.DYNAMIC:fpalu_block_average     0.191678                      
system.cpu0.POWER.DYNAMIC:fpmap_block_average     0.021895                      
system.cpu0.POWER.DYNAMIC:fpmul_block_average     0.191664                      
system.cpu0.POWER.DYNAMIC:fpq_block_average     0.115355                      
system.cpu0.POWER.DYNAMIC:fpreg_block_average     0.073247                      
system.cpu0.POWER.DYNAMIC:icache_block_average     0.456373                      
system.cpu0.POWER.DYNAMIC:intalu_block_average     0.585985                      
system.cpu0.POWER.DYNAMIC:intmap_block_average     0.028571                      
system.cpu0.POWER.DYNAMIC:intq_block_average     0.244581                      
system.cpu0.POWER.DYNAMIC:intreg_block_average     0.227889                      
system.cpu0.POWER.DYNAMIC:itlb_block_average     0.005287                      
system.cpu0.POWER.DYNAMIC:lsq_block_average     0.087389                      
3.135951

---------- Begin Simulation Statistics ----------
host_inst_rate                                  23377                      
host_mem_usage                                 195068                      
host_seconds                                  6008.25                      
host_tick_rate                                 194493                      
sim_freq                                    400000000                      
sim_insts                                   140454729                      
sim_seconds                                  2.921414                      
sim_ticks                                  1168565756                      
system.cpu0.COM:IPB                          4.954442                      
system.cpu0.COM:IPC                          0.120194                      
system.cpu0.COM:branches                     28349253                      
system.cpu0.COM:bw_lim_avg               <err: div-0>                      
system.cpu0.COM:bw_lim_events                       0                      
system.cpu0.COM:bw_lim_rate                    0.0000                      
system.cpu0.COM:bw_lim_stdev_0_mean      <err: div-0>                      
system.cpu0.COM:bw_lim_stdev_0_stdev     <err: div-0>                      
**Ignore: system.cpu0.COM:bw_lim_stdev_0_TOT       0.0000                      
system.cpu0.COM:bw_limited                          0                      
system.cpu0.COM:committed_per_cycle.start_dist
system.cpu0.COM:committed_per_cycle.samples     46665590                      
system.cpu0.COM:committed_per_cycle.min_value            0                      
                               0       398376     85.37%           
                               1      9909603   2123.54%           
                               2      5735992   1229.17%           
                               3      3200803    685.90%           
                               4     27420816   5876.02%           
system.cpu0.COM:committed_per_cycle.max_value            4                      
system.cpu0.COM:committed_per_cycle.end_dist

system.cpu0.COM:count                       140454729                      
system.cpu0.COM:loads                        17307460                      
system.cpu0.COM:membars                        306302                      
system.cpu0.COM:refs                         28188328                      
system.cpu0.COM:stores                       10880868                      
system.cpu0.COM:swp_count                      212531                      
system.cpu0.DDQ:count                      9328120997                      
system.cpu0.DDQ:rate                                8                      
system.cpu0.DIS:chain_creation.start_dist
     Inst has no outstanding IDEPS            0      0.00%           
      IDEP chain reached max depth            0      0.00%           
                    Inst is a load            0      0.00%           
  Chain has multiple chained IDEPS            0      0.00%           
system.cpu0.DIS:chain_creation.end_dist
system.cpu0.DIS:chain_head_frac                     0                      
system.cpu0.DIS:chain_heads                         0                      
system.cpu0.DIS:chains_insuf                        0                      
system.cpu0.DIS:chains_insuf_rate                   0                      
system.cpu0.DIS:count                       162042536                      
system.cpu0.DIS:insufficient_chains                 0                      
system.cpu0.DIS:mod_n_stall_avg_free     <err: div-0>                      
system.cpu0.DIS:mod_n_stall_frac                    0                      
system.cpu0.DIS:mod_n_stall_free                    0                      
system.cpu0.DIS:mod_n_stalls                        0                      
system.cpu0.DIS:one_rdy_insts                       0                      
system.cpu0.DIS:one_rdy_ratio            <err: div-0>                      
system.cpu0.DIS:op_count                    196039681                      
system.cpu0.DIS:op_rate                      0.167761                      
system.cpu0.DIS:rate                         0.138668                      
system.cpu0.DIS:second_choice_clust                 0                      
system.cpu0.DIS:second_choice_stall                 0                      
system.cpu0.DIS:serialize_stall_cycles        9435779                      
system.cpu0.DIS:serializing_insts              295386                      
system.cpu0.DIS:two_input_insts                     0                      
system.cpu0.DIS:two_input_ratio                     0                      
system.cpu0.FETCH:branch_count               44402992                      
system.cpu0.FETCH:branch_rate                0.037998                      
system.cpu0.FETCH:chance_pct                        1                      
system.cpu0.FETCH:chances                    63721860                      
system.cpu0.FETCH:choice                     63721860                      
system.cpu0.FETCH:count                     224928645                      
system.cpu0.FETCH:decisions                  63721860                      
system.cpu0.FETCH:idle_cycles              1104843897                      
system.cpu0.FETCH:idle_icache_blocked_cycles            0                      
system.cpu0.FETCH:idle_rate                     94.55                      
system.cpu0.FETCH:prio_changes                      0                      
system.cpu0.FETCH:rate                       0.192483                      
system.cpu0.FETCH:rate_dist.start_dist    
system.cpu0.FETCH:rate_dist.samples          63721860                      
system.cpu0.FETCH:rate_dist.min_value               0                      
                               0       188144     29.53%           
                               1      5464640    857.58%           
                               2      2843041    446.16%           
                               3      7126217   1118.33%           
                               4     48099818   7548.40%           
system.cpu0.FETCH:rate_dist.max_value               4                      
system.cpu0.FETCH:rate_dist.end_dist

system.cpu0.FETCH:rate_dist_0.start_dist  
system.cpu0.FETCH:rate_dist_0.samples        63721860                      
system.cpu0.FETCH:rate_dist_0.min_value             0                      
                               0       188144     29.53%           
                               1      5464640    857.58%           
                               2      2843041    446.16%           
                               3      7126217   1118.33%           
                               4     48099818   7548.40%           
system.cpu0.FETCH:rate_dist_0.max_value             4                      
system.cpu0.FETCH:rate_dist_0.end_dist

system.cpu0.IFQ:count                      3891765450                      
system.cpu0.IFQ:full_count                  111775463                      
system.cpu0.IFQ:full_rate                    9.565184                      
system.cpu0.IFQ:latency                     24.016937                      
system.cpu0.IFQ:occupancy                    3.330378                      
system.cpu0.IFQ:qfull_iq_occ               5500399624                      
system.cpu0.IFQ:qfull_iq_occ_dist_0.start_dist
system.cpu0.IFQ:qfull_iq_occ_dist_0.samples     93323998                      
system.cpu0.IFQ:qfull_iq_occ_dist_0.min_value            0                      
                               0      5715056    612.39%           
                              10       782957     83.90%           
                              20       693489     74.31%           
                              30       793982     85.08%           
                              40      1011657    108.40%           
                              50       934704    100.16%           
                              60     83392153   8935.77%           
system.cpu0.IFQ:qfull_iq_occ_dist_0.max_value           64                      
system.cpu0.IFQ:qfull_iq_occ_dist_0.end_dist

system.cpu0.IFQ:qfull_rob_occ              8548013798                      
system.cpu0.IFQ:qfull_rob_occ_dist_0.start_dist
system.cpu0.IFQ:qfull_rob_occ_dist_0.samples     93323998                      
system.cpu0.IFQ:qfull_rob_occ_dist_0.min_value            1                      
                               0      1276411    136.77%           
                              10      1729242    185.29%           
                              20      1173358    125.73%           
                              30       469204     50.28%           
                              40       281108     30.12%           
                              50       189321     20.29%           
                              60      5676472    608.25%           
                              70      1453955    155.80%           
                              80       651702     69.83%           
                              90     75578625   8098.52%           
                             100      1031994    110.58%           
                             110      1436670    153.94%           
                             120      2375936    254.59%           
                             130            0      0.00%           
system.cpu0.IFQ:qfull_rob_occ_dist_0.max_value          128                      
system.cpu0.IFQ:qfull_rob_occ_dist_0.end_dist

system.cpu0.IQ:cap_events                           0                      
system.cpu0.IQ:cap_inst                             0                      
system.cpu0.IQ:residence:(null).start_dist
system.cpu0.IQ:residence:(null).samples          9160                      
system.cpu0.IQ:residence:(null).min_value            1                      
                               0         8200   8951.97%   8951.97%
                               2          643    701.97%   9653.93%
                               4          150    163.76%   9817.69%
                               6           31     33.84%   9851.53%
                               8          114    124.45%   9975.98%
                              10            3      3.28%   9979.26%
                              12            3      3.28%   9982.53%
                              14            1      1.09%   9983.62%
                              16            9      9.83%   9993.45%
                              18            1      1.09%   9994.54%
                              20            5      5.46%  10000.00%
                              22            0      0.00%  10000.00%
                              24            0      0.00%  10000.00%
                              26            0      0.00%  10000.00%
                              28            0      0.00%  10000.00%
                              30            0      0.00%  10000.00%
                              32            0      0.00%  10000.00%
                              34            0      0.00%  10000.00%
                              36            0      0.00%  10000.00%
                              38            0      0.00%  10000.00%
                              40            0      0.00%  10000.00%
                              42            0      0.00%  10000.00%
                              44            0      0.00%  10000.00%
                              46            0      0.00%  10000.00%
                              48            0      0.00%  10000.00%
                              50            0      0.00%  10000.00%
                              52            0      0.00%  10000.00%
                              54            0      0.00%  10000.00%
                              56            0      0.00%  10000.00%
                              58            0      0.00%  10000.00%
                              60            0      0.00%  10000.00%
                              62            0      0.00%  10000.00%
                              64            0      0.00%  10000.00%
                              66            0      0.00%  10000.00%
                              68            0      0.00%  10000.00%
                              70            0      0.00%  10000.00%
                              72            0      0.00%  10000.00%
                              74            0      0.00%  10000.00%
                              76            0      0.00%  10000.00%
                              78            0      0.00%  10000.00%
                              80            0      0.00%  10000.00%
                              82            0      0.00%  10000.00%
                              84            0      0.00%  10000.00%
                              86            0      0.00%  10000.00%
                              88            0      0.00%  10000.00%
                              90            0      0.00%  10000.00%
                              92            0      0.00%  10000.00%
                              94            0      0.00%  10000.00%
                              96            0      0.00%  10000.00%
                              98            0      0.00%  10000.00%
system.cpu0.IQ:residence:(null).max_value           21                      
system.cpu0.IQ:residence:(null).end_dist

system.cpu0.IQ:residence:IntAlu.start_dist
system.cpu0.IQ:residence:IntAlu.samples     117480318                      
system.cpu0.IQ:residence:IntAlu.min_value            1                      
                               0     31529470   2683.81%   2683.81%
                               2     32056421   2728.66%   5412.47%
                               4      6541498    556.82%   5969.29%
                               6      5210201    443.50%   6412.78%
                               8      4157381    353.88%   6766.66%
                              10      2889805    245.98%   7012.64%
                              12      2749409    234.03%   7246.68%
                              14      4310162    366.88%   7613.56%
                              16      4229078    359.98%   7973.54%
                              18      2600244    221.33%   8194.88%
                              20      2635314    224.32%   8419.20%
                              22      2991064    254.60%   8673.80%
                              24      1745683    148.59%   8822.39%
                              26       977354     83.19%   8905.58%
                              28       619271     52.71%   8958.30%
                              30       605680     51.56%   9009.85%
                              32       541401     46.08%   9055.94%
                              34       468814     39.91%   9095.84%
                              36       565014     48.09%   9143.94%
                              38       524834     44.67%   9188.61%
                              40       448421     38.17%   9226.78%
                              42       344574     29.33%   9256.11%
                              44       362524     30.86%   9286.97%
                              46       307403     26.17%   9313.14%
                              48       257205     21.89%   9335.03%
                              50       246482     20.98%   9356.01%
                              52       247592     21.08%   9377.09%
                              54       253947     21.62%   9398.70%
                              56       110772      9.43%   9408.13%
                              58       131081     11.16%   9419.29%
                              60       118307     10.07%   9429.36%
                              62       203638     17.33%   9446.69%
                              64       118853     10.12%   9456.81%
                              66       100132      8.52%   9465.33%
                              68       106146      9.04%   9474.37%
                              70        66642      5.67%   9480.04%
                              72        82486      7.02%   9487.06%
                              74        66423      5.65%   9492.72%
                              76        88448      7.53%   9500.24%
                              78       100478      8.55%   9508.80%
                              80        54757      4.66%   9513.46%
                              82        52420      4.46%   9517.92%
                              84        52392      4.46%   9522.38%
                              86        57130      4.86%   9527.24%
                              88        66291      5.64%   9532.89%
                              90        76215      6.49%   9539.37%
                              92        38638      3.29%   9542.66%
                              94        46925      3.99%   9546.66%
                              96        36679      3.12%   9549.78%
                              98        66602      5.67%   9555.45%
system.cpu0.IQ:residence:IntAlu.overflows      5222617                      
system.cpu0.IQ:residence:IntAlu.max_value        20546                      
system.cpu0.IQ:residence:IntAlu.end_dist

system.cpu0.IQ:residence:IntMult.start_dist
system.cpu0.IQ:residence:IntMult.samples       385731                      
system.cpu0.IQ:residence:IntMult.min_value            1                      
                               0         4744    122.99%    122.99%
                               2         3399     88.12%    211.11%
                               4         9289    240.82%    451.92%
                               6         7029    182.23%    634.15%
                               8         7786    201.85%    836.00%
                              10         6477    167.91%   1003.91%
                              12         5370    139.22%   1143.13%
                              14         7591    196.80%   1339.92%
                              16        11501    298.16%   1638.08%
                              18        17820    461.98%   2100.06%
                              20        96170   2493.19%   4593.25%
                              22       122446   3174.39%   7767.64%
                              24        46224   1198.35%   8965.99%
                              26         3271     84.80%   9050.79%
                              28          351      9.10%   9059.89%
                              30         3245     84.13%   9144.01%
                              32         2968     76.94%   9220.96%
                              34         2904     75.29%   9296.25%
                              36         3336     86.49%   9382.73%
                              38         2454     63.62%   9446.35%
                              40         9563    247.92%   9694.27%
                              42         1187     30.77%   9725.04%
                              44          286      7.41%   9732.46%
                              46          152      3.94%   9736.40%
                              48          431     11.17%   9747.57%
                              50          227      5.88%   9753.46%
                              52          721     18.69%   9772.15%
                              54          478     12.39%   9784.54%
                              56          627     16.25%   9800.79%
                              58          103      2.67%   9803.46%
                              60           29      0.75%   9804.22%
                              62           62      1.61%   9805.82%
                              64           36      0.93%   9806.76%
                              66           91      2.36%   9809.12%
                              68          112      2.90%   9812.02%
                              70          380      9.85%   9821.87%
                              72          295      7.65%   9829.52%
                              74          335      8.68%   9838.20%
                              76           94      2.44%   9840.64%
                              78           81      2.10%   9842.74%
                              80          100      2.59%   9845.33%
                              82           91      2.36%   9847.69%
                              84           43      1.11%   9848.81%
                              86           15      0.39%   9849.20%
                              88           49      1.27%   9850.47%
                              90           26      0.67%   9851.14%
                              92            9      0.23%   9851.37%
                              94           12      0.31%   9851.68%
                              96            6      0.16%   9851.84%
                              98            9      0.23%   9852.07%
system.cpu0.IQ:residence:IntMult.overflows         5706                      
system.cpu0.IQ:residence:IntMult.max_value          729                      
system.cpu0.IQ:residence:IntMult.end_dist

system.cpu0.IQ:residence:IntDiv.start_dist
system.cpu0.IQ:residence:IntDiv.samples             0                      
system.cpu0.IQ:residence:IntDiv.min_value            0                      
                               0            0                      
                               2            0                      
                               4            0                      
                               6            0                      
                               8            0                      
                              10            0                      
                              12            0                      
                              14            0                      
                              16            0                      
                              18            0                      
                              20            0                      
                              22            0                      
                              24            0                      
                              26            0                      
                              28            0                      
                              30            0                      
                              32            0                      
                              34            0                      
                              36            0                      
                              38            0                      
                              40            0                      
                              42            0                      
                              44            0                      
                              46            0                      
                              48            0                      
                              50            0                      
                              52            0                      
                              54            0                      
                              56            0                      
                              58            0                      
                              60            0                      
                              62            0                      
                              64            0                      
                              66            0                      
                              68            0                      
                              70            0                      
                              72            0                      
                              74            0                      
                              76            0                      
                              78            0                      
                              80            0                      
                              82            0                      
                              84            0                      
                              86            0                      
                              88            0                      
                              90            0                      
                              92            0                      
                              94            0                      
                              96            0                      
                              98            0                      
system.cpu0.IQ:residence:IntDiv.max_value            0                      
system.cpu0.IQ:residence:IntDiv.end_dist

system.cpu0.IQ:residence:FloatAdd.start_dist
system.cpu0.IQ:residence:FloatAdd.samples         9634                      
system.cpu0.IQ:residence:FloatAdd.min_value            1                      
                               0           98    101.72%    101.72%
                               2          163    169.19%    270.92%
                               4          138    143.24%    414.16%
                               6         2356   2445.51%   2859.66%
                               8           25     25.95%   2885.61%
                              10          428    444.26%   3329.87%
                              12          842    873.99%   4203.86%
                              14          389    403.78%   4607.64%
                              16         2432   2524.39%   7132.03%
                              18            0      0.00%   7132.03%
                              20            2      2.08%   7134.11%
                              22            1      1.04%   7135.15%
                              24            0      0.00%   7135.15%
                              26            2      2.08%   7137.22%
                              28            0      0.00%   7137.22%
                              30            1      1.04%   7138.26%
                              32            4      4.15%   7142.41%
                              34           33     34.25%   7176.67%
                              36         1847   1917.17%   9093.83%
                              38          866    898.90%   9992.73%
                              40            0      0.00%   9992.73%
                              42            0      0.00%   9992.73%
                              44            0      0.00%   9992.73%
                              46            0      0.00%   9992.73%
                              48            0      0.00%   9992.73%
                              50            0      0.00%   9992.73%
                              52            0      0.00%   9992.73%
                              54            0      0.00%   9992.73%
                              56            0      0.00%   9992.73%
                              58            0      0.00%   9992.73%
                              60            0      0.00%   9992.73%
                              62            0      0.00%   9992.73%
                              64            0      0.00%   9992.73%
                              66            0      0.00%   9992.73%
                              68            0      0.00%   9992.73%
                              70            0      0.00%   9992.73%
                              72            0      0.00%   9992.73%
                              74            0      0.00%   9992.73%
                              76            0      0.00%   9992.73%
                              78            1      1.04%   9993.77%
                              80            0      0.00%   9993.77%
                              82            0      0.00%   9993.77%
                              84            6      6.23%  10000.00%
                              86            0      0.00%  10000.00%
                              88            0      0.00%  10000.00%
                              90            0      0.00%  10000.00%
                              92            0      0.00%  10000.00%
                              94            0      0.00%  10000.00%
                              96            0      0.00%  10000.00%
                              98            0      0.00%  10000.00%
system.cpu0.IQ:residence:FloatAdd.max_value           85                      
system.cpu0.IQ:residence:FloatAdd.end_dist

system.cpu0.IQ:residence:FloatCmp.start_dist
system.cpu0.IQ:residence:FloatCmp.samples            0                      
system.cpu0.IQ:residence:FloatCmp.min_value            0                      
                               0            0                      
                               2            0                      
                               4            0                      
                               6            0                      
                               8            0                      
                              10            0                      
                              12            0                      
                              14            0                      
                              16            0                      
                              18            0                      
                              20            0                      
                              22            0                      
                              24            0                      
                              26            0                      
                              28            0                      
                              30            0                      
                              32            0                      
                              34            0                      
                              36            0                      
                              38            0                      
                              40            0                      
                              42            0                      
                              44            0                      
                              46            0                      
                              48            0                      
                              50            0                      
                              52            0                      
                              54            0                      
                              56            0                      
                              58            0                      
                              60            0                      
                              62            0                      
                              64            0                      
                              66            0                      
                              68            0                      
                              70            0                      
                              72            0                      
                              74            0                      
                              76            0                      
                              78            0                      
                              80            0                      
                              82            0                      
                              84            0                      
                              86            0                      
                              88            0                      
                              90            0                      
                              92            0                      
                              94            0                      
                              96            0                      
                              98            0                      
system.cpu0.IQ:residence:FloatCmp.max_value            0                      
system.cpu0.IQ:residence:FloatCmp.end_dist

system.cpu0.IQ:residence:FloatCvt.start_dist
system.cpu0.IQ:residence:FloatCvt.samples            0                      
system.cpu0.IQ:residence:FloatCvt.min_value            0                      
                               0            0                      
                               2            0                      
                               4            0                      
                               6            0                      
                               8            0                      
                              10            0                      
                              12            0                      
                              14            0                      
                              16            0                      
                              18            0                      
                              20            0                      
                              22            0                      
                              24            0                      
                              26            0                      
                              28            0                      
                              30            0                      
                              32            0                      
                              34            0                      
                              36            0                      
                              38            0                      
                              40            0                      
                              42            0                      
                              44            0                      
                              46            0                      
                              48            0                      
                              50            0                      
                              52            0                      
                              54            0                      
                              56            0                      
                              58            0                      
                              60            0                      
                              62            0                      
                              64            0                      
                              66            0                      
                              68            0                      
                              70            0                      
                              72            0                      
                              74            0                      
                              76            0                      
                              78            0                      
                              80            0                      
                              82            0                      
                              84            0                      
                              86            0                      
                              88            0                      
                              90            0                      
                              92            0                      
                              94            0                      
                              96            0                      
                              98            0                      
system.cpu0.IQ:residence:FloatCvt.max_value            0                      
system.cpu0.IQ:residence:FloatCvt.end_dist

system.cpu0.IQ:residence:FloatMult.start_dist
system.cpu0.IQ:residence:FloatMult.samples            2                      
system.cpu0.IQ:residence:FloatMult.min_value           79                      
                               0            0      0.00%      0.00%
                               2            0      0.00%      0.00%
                               4            0      0.00%      0.00%
                               6            0      0.00%      0.00%
                               8            0      0.00%      0.00%
                              10            0      0.00%      0.00%
                              12            0      0.00%      0.00%
                              14            0      0.00%      0.00%
                              16            0      0.00%      0.00%
                              18            0      0.00%      0.00%
                              20            0      0.00%      0.00%
                              22            0      0.00%      0.00%
                              24            0      0.00%      0.00%
                              26            0      0.00%      0.00%
                              28            0      0.00%      0.00%
                              30            0      0.00%      0.00%
                              32            0      0.00%      0.00%
                              34            0      0.00%      0.00%
                              36            0      0.00%      0.00%
                              38            0      0.00%      0.00%
                              40            0      0.00%      0.00%
                              42            0      0.00%      0.00%
                              44            0      0.00%      0.00%
                              46            0      0.00%      0.00%
                              48            0      0.00%      0.00%
                              50            0      0.00%      0.00%
                              52            0      0.00%      0.00%
                              54            0      0.00%      0.00%
                              56            0      0.00%      0.00%
                              58            0      0.00%      0.00%
                              60            0      0.00%      0.00%
                              62            0      0.00%      0.00%
                              64            0      0.00%      0.00%
                              66            0      0.00%      0.00%
                              68            0      0.00%      0.00%
                              70            0      0.00%      0.00%
                              72            0      0.00%      0.00%
                              74            0      0.00%      0.00%
                              76            0      0.00%      0.00%
                              78            1   5000.00%   5000.00%
                              80            0      0.00%   5000.00%
                              82            0      0.00%   5000.00%
                              84            0      0.00%   5000.00%
                              86            0      0.00%   5000.00%
                              88            0      0.00%   5000.00%
                              90            0      0.00%   5000.00%
                              92            0      0.00%   5000.00%
                              94            0      0.00%   5000.00%
                              96            0      0.00%   5000.00%
                              98            0      0.00%   5000.00%
system.cpu0.IQ:residence:FloatMult.overflows            1                      
system.cpu0.IQ:residence:FloatMult.max_value          145                      
system.cpu0.IQ:residence:FloatMult.end_dist

system.cpu0.IQ:residence:FloatDiv.start_dist
system.cpu0.IQ:residence:FloatDiv.samples           60                      
system.cpu0.IQ:residence:FloatDiv.min_value            6                      
                               0            0      0.00%      0.00%
                               2            0      0.00%      0.00%
                               4            0      0.00%      0.00%
                               6           59   9833.33%   9833.33%
                               8            0      0.00%   9833.33%
                              10            0      0.00%   9833.33%
                              12            0      0.00%   9833.33%
                              14            0      0.00%   9833.33%
                              16            0      0.00%   9833.33%
                              18            0      0.00%   9833.33%
                              20            0      0.00%   9833.33%
                              22            0      0.00%   9833.33%
                              24            0      0.00%   9833.33%
                              26            0      0.00%   9833.33%
                              28            1    166.67%  10000.00%
                              30            0      0.00%  10000.00%
                              32            0      0.00%  10000.00%
                              34            0      0.00%  10000.00%
                              36            0      0.00%  10000.00%
                              38            0      0.00%  10000.00%
                              40            0      0.00%  10000.00%
                              42            0      0.00%  10000.00%
                              44            0      0.00%  10000.00%
                              46            0      0.00%  10000.00%
                              48            0      0.00%  10000.00%
                              50            0      0.00%  10000.00%
                              52            0      0.00%  10000.00%
                              54            0      0.00%  10000.00%
                              56            0      0.00%  10000.00%
                              58            0      0.00%  10000.00%
                              60            0      0.00%  10000.00%
                              62            0      0.00%  10000.00%
                              64            0      0.00%  10000.00%
                              66            0      0.00%  10000.00%
                              68            0      0.00%  10000.00%
                              70            0      0.00%  10000.00%
                              72            0      0.00%  10000.00%
                              74            0      0.00%  10000.00%
                              76            0      0.00%  10000.00%
                              78            0      0.00%  10000.00%
                              80            0      0.00%  10000.00%
                              82            0      0.00%  10000.00%
                              84            0      0.00%  10000.00%
                              86            0      0.00%  10000.00%
                              88            0      0.00%  10000.00%
                              90            0      0.00%  10000.00%
                              92            0      0.00%  10000.00%
                              94            0      0.00%  10000.00%
                              96            0      0.00%  10000.00%
                              98            0      0.00%  10000.00%
system.cpu0.IQ:residence:FloatDiv.max_value           29                      
system.cpu0.IQ:residence:FloatDiv.end_dist

system.cpu0.IQ:residence:FloatSqrt.start_dist
system.cpu0.IQ:residence:FloatSqrt.samples            0                      
system.cpu0.IQ:residence:FloatSqrt.min_value            0                      
                               0            0                      
                               2            0                      
                               4            0                      
                               6            0                      
                               8            0                      
                              10            0                      
                              12            0                      
                              14            0                      
                              16            0                      
                              18            0                      
                              20            0                      
                              22            0                      
                              24            0                      
                              26            0                      
                              28            0                      
                              30            0                      
                              32            0                      
                              34            0                      
                              36            0                      
                              38            0                      
                              40            0                      
                              42            0                      
                              44            0                      
                              46            0                      
                              48            0                      
                              50            0                      
                              52            0                      
                              54            0                      
                              56            0                      
                              58            0                      
                              60            0                      
                              62            0                      
                              64            0                      
                              66            0                      
                              68            0                      
                              70            0                      
                              72            0                      
                              74            0                      
                              76            0                      
                              78            0                      
                              80            0                      
                              82            0                      
                              84            0                      
                              86            0                      
                              88            0                      
                              90            0                      
                              92            0                      
                              94            0                      
                              96            0                      
                              98            0                      
system.cpu0.IQ:residence:FloatSqrt.max_value            0                      
system.cpu0.IQ:residence:FloatSqrt.end_dist

system.cpu0.IQ:residence:MemRead.start_dist
system.cpu0.IQ:residence:MemRead.samples     38372927                      
system.cpu0.IQ:residence:MemRead.min_value            1                      
                               0      3999055   1042.16%   1042.16%
                               2      6253343   1629.62%   2671.78%
                               4      3222136    839.69%   3511.47%
                               6      2652547    691.25%   4202.72%
                               8      2019454    526.27%   4728.99%
                              10      1657814    432.03%   5161.02%
                              12      1290865    336.40%   5497.42%
                              14      1157656    301.69%   5799.11%
                              16      1249054    325.50%   6124.61%
                              18      1719148    448.01%   6572.62%
                              20      2453888    639.48%   7212.11%
                              22      2717392    708.15%   7920.26%
                              24       884403    230.48%   8150.73%
                              26       239882     62.51%   8213.25%
                              28       210253     54.79%   8268.04%
                              30       155476     40.52%   8308.56%
                              32       155353     40.49%   8349.04%
                              34       217073     56.57%   8405.61%
                              36       248009     64.63%   8470.24%
                              38       246953     64.36%   8534.60%
                              40       174659     45.52%   8580.12%
                              42       188226     49.05%   8629.17%
                              44       132690     34.58%   8663.75%
                              46       171349     44.65%   8708.40%
                              48        81393     21.21%   8729.61%
                              50       119809     31.22%   8760.83%
                              52        73249     19.09%   8779.92%
                              54        89137     23.23%   8803.15%
                              56        45790     11.93%   8815.08%
                              58        47715     12.43%   8827.52%
                              60        72321     18.85%   8846.37%
                              62        66689     17.38%   8863.74%
                              64       123453     32.17%   8895.92%
                              66        41889     10.92%   8906.83%
                              68        52300     13.63%   8920.46%
                              70        30197      7.87%   8928.33%
                              72        40699     10.61%   8938.94%
                              74        30591      7.97%   8946.91%
                              76        28060      7.31%   8954.22%
                              78        65138     16.97%   8971.20%
                              80        40348     10.51%   8981.71%
                              82        28270      7.37%   8989.08%
                              84        40519     10.56%   8999.64%
                              86        49940     13.01%   9012.65%
                              88        21048      5.49%   9018.14%
                              90        24451      6.37%   9024.51%
                              92        22009      5.74%   9030.24%
                              94        26825      6.99%   9037.24%
                              96        22565      5.88%   9043.12%
                              98         8771      2.29%   9045.40%
system.cpu0.IQ:residence:MemRead.overflows      3663073                      
system.cpu0.IQ:residence:MemRead.max_value        20542                      
system.cpu0.IQ:residence:MemRead.end_dist

system.cpu0.IQ:residence:MemWrite.start_dist
system.cpu0.IQ:residence:MemWrite.samples     22890350                      
system.cpu0.IQ:residence:MemWrite.min_value            1                      
                               0      2045584    893.64%    893.64%
                               2      4056810   1772.28%   2665.92%
                               4      2395240   1046.40%   3712.32%
                               6      1957585    855.20%   4567.52%
                               8      1519628    663.87%   5231.40%
                              10       956525    417.87%   5649.27%
                              12       787300    343.94%   5993.21%
                              14       719305    314.24%   6307.45%
                              16       769107    336.00%   6643.45%
                              18       996587    435.37%   7078.82%
                              20      1322819    577.89%   7656.72%
                              22      1646449    719.28%   8375.99%
                              24       857563    374.64%   8750.63%
                              26       230723    100.79%   8851.43%
                              28       187950     82.11%   8933.54%
                              30       131514     57.45%   8990.99%
                              32       187860     82.07%   9073.06%
                              34       187202     81.78%   9154.84%
                              36       215740     94.25%   9249.09%
                              38       173183     75.66%   9324.75%
                              40       159697     69.77%   9394.51%
                              42       121618     53.13%   9447.64%
                              44       106177     46.39%   9494.03%
                              46        72492     31.67%   9525.70%
                              48        57653     25.19%   9550.89%
                              50       152324     66.55%   9617.43%
                              52        68069     29.74%   9647.17%
                              54        33401     14.59%   9661.76%
                              56        32717     14.29%   9676.05%
                              58        19806      8.65%   9684.70%
                              60        48044     20.99%   9705.69%
                              62        63973     27.95%   9733.64%
                              64       130779     57.13%   9790.77%
                              66        14032      6.13%   9796.90%
                              68        17462      7.63%   9804.53%
                              70        17870      7.81%   9812.34%
                              72        23602     10.31%   9822.65%
                              74        19268      8.42%   9831.07%
                              76        31044     13.56%   9844.63%
                              78        42493     18.56%   9863.19%
                              80        35858     15.67%   9878.86%
                              82        17641      7.71%   9886.57%
                              84        11547      5.04%   9891.61%
                              86         8309      3.63%   9895.24%
                              88        11439      5.00%   9900.24%
                              90        13333      5.82%   9906.06%
                              92        13937      6.09%   9912.15%
                              94         7159      3.13%   9915.28%
                              96         4336      1.89%   9917.17%
                              98         6740      2.94%   9920.12%
system.cpu0.IQ:residence:MemWrite.overflows       182856                      
system.cpu0.IQ:residence:MemWrite.max_value        20547                      
system.cpu0.IQ:residence:MemWrite.end_dist

system.cpu0.IQ:residence:IprAccess.start_dist
system.cpu0.IQ:residence:IprAccess.samples      1409988                      
system.cpu0.IQ:residence:IprAccess.min_value            1                      
                               0       293354   2080.54%   2080.54%
                               2       249144   1766.99%   3847.54%
                               4        78972    560.09%   4407.63%
                               6       269527   1911.56%   6319.18%
                               8       226583   1606.99%   7926.17%
                              10        62104    440.46%   8366.62%
                              12        44947    318.78%   8685.40%
                              14        34715    246.21%   8931.61%
                              16        34041    241.43%   9173.04%
                              18        18720    132.77%   9305.80%
                              20        18524    131.38%   9437.18%
                              22        18336    130.04%   9567.22%
                              24        11188     79.35%   9646.57%
                              26         4633     32.86%   9679.43%
                              28         6098     43.25%   9722.68%
                              30         3148     22.33%   9745.00%
                              32         1968     13.96%   9758.96%
                              34         2325     16.49%   9775.45%
                              36         3947     27.99%   9803.45%
                              38         4206     29.83%   9833.28%
                              40         1052      7.46%   9840.74%
                              42          464      3.29%   9844.03%
                              44         1163      8.25%   9852.28%
                              46          752      5.33%   9857.61%
                              48         1646     11.67%   9869.28%
                              50          903      6.40%   9875.69%
                              52          739      5.24%   9880.93%
                              54          505      3.58%   9884.51%
                              56          455      3.23%   9887.74%
                              58         2470     17.52%   9905.25%
                              60          708      5.02%   9910.28%
                              62          559      3.96%   9914.24%
                              64         2537     17.99%   9932.23%
                              66          313      2.22%   9934.45%
                              68          248      1.76%   9936.21%
                              70          431      3.06%   9939.27%
                              72          393      2.79%   9942.06%
                              74          207      1.47%   9943.52%
                              76          610      4.33%   9947.85%
                              78          687      4.87%   9952.72%
                              80          434      3.08%   9955.80%
                              82          237      1.68%   9957.48%
                              84          780      5.53%   9963.01%
                              86          826      5.86%   9968.87%
                              88          297      2.11%   9970.98%
                              90          836      5.93%   9976.91%
                              92          345      2.45%   9979.35%
                              94          452      3.21%   9982.56%
                              96          372      2.64%   9985.20%
                              98          150      1.06%   9986.26%
system.cpu0.IQ:residence:IprAccess.overflows         1937                      
system.cpu0.IQ:residence:IprAccess.max_value          314                      
system.cpu0.IQ:residence:IprAccess.end_dist

system.cpu0.IQ:residence:InstPrefetch.start_dist
system.cpu0.IQ:residence:InstPrefetch.samples            0                      
system.cpu0.IQ:residence:InstPrefetch.min_value            0                      
                               0            0                      
                               2            0                      
                               4            0                      
                               6            0                      
                               8            0                      
                              10            0                      
                              12            0                      
                              14            0                      
                              16            0                      
                              18            0                      
                              20            0                      
                              22            0                      
                              24            0                      
                              26            0                      
                              28            0                      
                              30            0                      
                              32            0                      
                              34            0                      
                              36            0                      
                              38            0                      
                              40            0                      
                              42            0                      
                              44            0                      
                              46            0                      
                              48            0                      
                              50            0                      
                              52            0                      
                              54            0                      
                              56            0                      
                              58            0                      
                              60            0                      
                              62            0                      
                              64            0                      
                              66            0                      
                              68            0                      
                              70            0                      
                              72            0                      
                              74            0                      
                              76            0                      
                              78            0                      
                              80            0                      
                              82            0                      
                              84            0                      
                              86            0                      
                              88            0                      
                              90            0                      
                              92            0                      
                              94            0                      
                              96            0                      
                              98            0                      
system.cpu0.IQ:residence:InstPrefetch.max_value            0                      
system.cpu0.IQ:residence:InstPrefetch.end_dist

system.cpu0.ISSUE:(null)_delay.start_dist 
system.cpu0.ISSUE:(null)_delay.samples           9160                      
system.cpu0.ISSUE:(null)_delay.min_value            1                      
                               0         8200   8951.97%   8951.97%
                               2          643    701.97%   9653.93%
                               4          150    163.76%   9817.69%
                               6           31     33.84%   9851.53%
                               8          114    124.45%   9975.98%
                              10            3      3.28%   9979.26%
                              12            3      3.28%   9982.53%
                              14            1      1.09%   9983.62%
                              16            9      9.83%   9993.45%
                              18            1      1.09%   9994.54%
                              20            5      5.46%  10000.00%
                              22            0      0.00%  10000.00%
                              24            0      0.00%  10000.00%
                              26            0      0.00%  10000.00%
                              28            0      0.00%  10000.00%
                              30            0      0.00%  10000.00%
                              32            0      0.00%  10000.00%
                              34            0      0.00%  10000.00%
                              36            0      0.00%  10000.00%
                              38            0      0.00%  10000.00%
                              40            0      0.00%  10000.00%
                              42            0      0.00%  10000.00%
                              44            0      0.00%  10000.00%
                              46            0      0.00%  10000.00%
                              48            0      0.00%  10000.00%
                              50            0      0.00%  10000.00%
                              52            0      0.00%  10000.00%
                              54            0      0.00%  10000.00%
                              56            0      0.00%  10000.00%
                              58            0      0.00%  10000.00%
                              60            0      0.00%  10000.00%
                              62            0      0.00%  10000.00%
                              64            0      0.00%  10000.00%
                              66            0      0.00%  10000.00%
                              68            0      0.00%  10000.00%
                              70            0      0.00%  10000.00%
                              72            0      0.00%  10000.00%
                              74            0      0.00%  10000.00%
                              76            0      0.00%  10000.00%
                              78            0      0.00%  10000.00%
                              80            0      0.00%  10000.00%
                              82            0      0.00%  10000.00%
                              84            0      0.00%  10000.00%
                              86            0      0.00%  10000.00%
                              88            0      0.00%  10000.00%
                              90            0      0.00%  10000.00%
                              92            0      0.00%  10000.00%
                              94            0      0.00%  10000.00%
                              96            0      0.00%  10000.00%
                              98            0      0.00%  10000.00%
system.cpu0.ISSUE:(null)_delay.max_value           21                      
system.cpu0.ISSUE:(null)_delay.end_dist

system.cpu0.ISSUE:IntAlu_delay.start_dist 
system.cpu0.ISSUE:IntAlu_delay.samples      117480318                      
system.cpu0.ISSUE:IntAlu_delay.min_value            0                      
                               0    105675947   8995.20%   8995.20%
                               2      5333596    454.00%   9449.20%
                               4      1804855    153.63%   9602.83%
                               6       798722     67.99%   9670.82%
                               8       459945     39.15%   9709.97%
                              10       327214     27.85%   9737.83%
                              12       589153     50.15%   9787.97%
                              14      1118911     95.24%   9883.22%
                              16       652573     55.55%   9938.76%
                              18       283748     24.15%   9962.92%
                              20       211483     18.00%   9980.92%
                              22       213139     18.14%   9999.06%
                              24        11032      0.94%  10000.00%
                              26            0      0.00%  10000.00%
                              28            0      0.00%  10000.00%
                              30            0      0.00%  10000.00%
                              32            0      0.00%  10000.00%
                              34            0      0.00%  10000.00%
                              36            0      0.00%  10000.00%
                              38            0      0.00%  10000.00%
                              40            0      0.00%  10000.00%
                              42            0      0.00%  10000.00%
                              44            0      0.00%  10000.00%
                              46            0      0.00%  10000.00%
                              48            0      0.00%  10000.00%
                              50            0      0.00%  10000.00%
                              52            0      0.00%  10000.00%
                              54            0      0.00%  10000.00%
                              56            0      0.00%  10000.00%
                              58            0      0.00%  10000.00%
                              60            0      0.00%  10000.00%
                              62            0      0.00%  10000.00%
                              64            0      0.00%  10000.00%
                              66            0      0.00%  10000.00%
                              68            0      0.00%  10000.00%
                              70            0      0.00%  10000.00%
                              72            0      0.00%  10000.00%
                              74            0      0.00%  10000.00%
                              76            0      0.00%  10000.00%
                              78            0      0.00%  10000.00%
                              80            0      0.00%  10000.00%
                              82            0      0.00%  10000.00%
                              84            0      0.00%  10000.00%
                              86            0      0.00%  10000.00%
                              88            0      0.00%  10000.00%
                              90            0      0.00%  10000.00%
                              92            0      0.00%  10000.00%
                              94            0      0.00%  10000.00%
                              96            0      0.00%  10000.00%
                              98            0      0.00%  10000.00%
system.cpu0.ISSUE:IntAlu_delay.max_value           24                      
system.cpu0.ISSUE:IntAlu_delay.end_dist

system.cpu0.ISSUE:IntMult_delay.start_dist
system.cpu0.ISSUE:IntMult_delay.samples        385731                      
system.cpu0.ISSUE:IntMult_delay.min_value            0                      
                               0       288974   7491.59%   7491.59%
                               2        49710   1288.72%   8780.32%
                               4        22950    594.97%   9375.29%
                               6         6104    158.24%   9533.54%
                               8         1340     34.74%   9568.27%
                              10         2334     60.51%   9628.78%
                              12         1147     29.74%   9658.52%
                              14         1467     38.03%   9696.55%
                              16         1470     38.11%   9734.66%
                              18         4852    125.79%   9860.45%
                              20         2885     74.79%   9935.24%
                              22         1675     43.42%   9978.66%
                              24          823     21.34%  10000.00%
                              26            0      0.00%  10000.00%
                              28            0      0.00%  10000.00%
                              30            0      0.00%  10000.00%
                              32            0      0.00%  10000.00%
                              34            0      0.00%  10000.00%
                              36            0      0.00%  10000.00%
                              38            0      0.00%  10000.00%
                              40            0      0.00%  10000.00%
                              42            0      0.00%  10000.00%
                              44            0      0.00%  10000.00%
                              46            0      0.00%  10000.00%
                              48            0      0.00%  10000.00%
                              50            0      0.00%  10000.00%
                              52            0      0.00%  10000.00%
                              54            0      0.00%  10000.00%
                              56            0      0.00%  10000.00%
                              58            0      0.00%  10000.00%
                              60            0      0.00%  10000.00%
                              62            0      0.00%  10000.00%
                              64            0      0.00%  10000.00%
                              66            0      0.00%  10000.00%
                              68            0      0.00%  10000.00%
                              70            0      0.00%  10000.00%
                              72            0      0.00%  10000.00%
                              74            0      0.00%  10000.00%
                              76            0      0.00%  10000.00%
                              78            0      0.00%  10000.00%
                              80            0      0.00%  10000.00%
                              82            0      0.00%  10000.00%
                              84            0      0.00%  10000.00%
                              86            0      0.00%  10000.00%
                              88            0      0.00%  10000.00%
                              90            0      0.00%  10000.00%
                              92            0      0.00%  10000.00%
                              94            0      0.00%  10000.00%
                              96            0      0.00%  10000.00%
                              98            0      0.00%  10000.00%
system.cpu0.ISSUE:IntMult_delay.max_value           24                      
system.cpu0.ISSUE:IntMult_delay.end_dist

system.cpu0.ISSUE:IntDiv_delay.start_dist 
system.cpu0.ISSUE:IntDiv_delay.samples              0                      
system.cpu0.ISSUE:IntDiv_delay.min_value            0                      
                               0            0                      
                               2            0                      
                               4            0                      
                               6            0                      
                               8            0                      
                              10            0                      
                              12            0                      
                              14            0                      
                              16            0                      
                              18            0                      
                              20            0                      
                              22            0                      
                              24            0                      
                              26            0                      
                              28            0                      
                              30            0                      
                              32            0                      
                              34            0                      
                              36            0                      
                              38            0                      
                              40            0                      
                              42            0                      
                              44            0                      
                              46            0                      
                              48            0                      
                              50            0                      
                              52            0                      
                              54            0                      
                              56            0                      
                              58            0                      
                              60            0                      
                              62            0                      
                              64            0                      
                              66            0                      
                              68            0                      
                              70            0                      
                              72            0                      
                              74            0                      
                              76            0                      
                              78            0                      
                              80            0                      
                              82            0                      
                              84            0                      
                              86            0                      
                              88            0                      
                              90            0                      
                              92            0                      
                              94            0                      
                              96            0                      
                              98            0                      
system.cpu0.ISSUE:IntDiv_delay.max_value            0                      
system.cpu0.ISSUE:IntDiv_delay.end_dist

system.cpu0.ISSUE:FloatAdd_delay.start_dist
system.cpu0.ISSUE:FloatAdd_delay.samples         9634                      
system.cpu0.ISSUE:FloatAdd_delay.min_value            0                      
                               0         4924   5111.06%   5111.06%
                               2          163    169.19%   5280.26%
                               4            5      5.19%   5285.45%
                               6          491    509.65%   5795.10%
[...]
system.cpu0.kern.ipl_ticks_31               102738930      8.79%    100.00%
system.cpu0.kern.ipl_used                    0.870127                      
system.cpu0.kern.ipl_used_0                  0.983037                      
system.cpu0.kern.ipl_used_21                        1                      
system.cpu0.kern.ipl_used_22                        1                      
system.cpu0.kern.ipl_used_31                 0.777266                      
system.cpu0.kern.mode_good_kernel                3214                      
system.cpu0.kern.mode_good_user                  2868                      
system.cpu0.kern.mode_good_idle                   172                      
system.cpu0.kern.mode_good_interrupt              174                      
system.cpu0.kern.mode_switch_kernel             13934                      
system.cpu0.kern.mode_switch_user                2868                      
system.cpu0.kern.mode_switch_idle                8327                      
system.cpu0.kern.mode_switch_interrupt            174                      
system.cpu0.kern.mode_switch_good            0.254041                      
system.cpu0.kern.mode_switch_good_kernel     0.230659                      
system.cpu0.kern.mode_switch_good_user              1                      
system.cpu0.kern.mode_switch_good_idle       0.020656                      
system.cpu0.kern.mode_switch_good_interrupt            1                      
system.cpu0.kern.mode_ticks_kernel           71972194      6.16%      6.16%
system.cpu0.kern.mode_ticks_user             16578354      1.42%      7.58%
system.cpu0.kern.mode_ticks_idle           1078229540     92.27%     99.85%
system.cpu0.kern.mode_ticks_interrupt         1784132      0.15%    100.00%
system.cpu0.kern.swap_context                    5572                      
system.cpu0.kern.syscall                          678                      
system.cpu0.kern.syscall_exit                       1      0.15%      0.15%
system.cpu0.kern.syscall_fork                      12      1.77%      1.92%
system.cpu0.kern.syscall_read                      49      7.23%      9.14%
system.cpu0.kern.syscall_write                     51      7.52%     16.67%
system.cpu0.kern.syscall_close                     74     10.91%     27.58%
system.cpu0.kern.syscall_chdir                      4      0.59%     28.17%
system.cpu0.kern.syscall_chmod                      1      0.15%     28.32%
system.cpu0.kern.syscall_obreak                    60      8.85%     37.17%
system.cpu0.kern.syscall_lseek                     12      1.77%     38.94%
system.cpu0.kern.syscall_getpid                    11      1.62%     40.56%
system.cpu0.kern.syscall_setuid                     4      0.59%     41.15%
system.cpu0.kern.syscall_getuid                    12      1.77%     42.92%
system.cpu0.kern.syscall_access                     4      0.59%     43.51%
system.cpu0.kern.syscall_dup                        4      0.59%     44.10%
system.cpu0.kern.syscall_open                      99     14.60%     58.70%
system.cpu0.kern.syscall_getgid                    12      1.77%     60.47%
system.cpu0.kern.syscall_sigprocmask               17      2.51%     62.98%
system.cpu0.kern.syscall_ioctl                     23      3.39%     66.37%
system.cpu0.kern.syscall_readlink                   3      0.44%     66.81%
system.cpu0.kern.syscall_execve                     9      1.33%     68.14%
system.cpu0.kern.syscall_pre_F64_stat              39      5.75%     73.89%
system.cpu0.kern.syscall_pre_F64_lstat              1      0.15%     74.04%
system.cpu0.kern.syscall_mmap                      69     10.18%     84.22%
system.cpu0.kern.syscall_munmap                    11      1.62%     85.84%
system.cpu0.kern.syscall_mprotect                  17      2.51%     88.35%
system.cpu0.kern.syscall_gethostname                3      0.44%     88.79%
system.cpu0.kern.syscall_dup2                       3      0.44%     89.23%
system.cpu0.kern.syscall_pre_F64_fstat             36      5.31%     94.54%
system.cpu0.kern.syscall_fcntl                     18      2.65%     97.20%
system.cpu0.kern.syscall_socket                     4      0.59%     97.79%
system.cpu0.kern.syscall_connect                    4      0.59%     98.38%
system.cpu0.kern.syscall_setgid                     4      0.59%     98.97%
system.cpu0.kern.syscall_getrlimit                  2      0.29%     99.26%
system.cpu0.kern.syscall_setsid                     3      0.44%     99.71%
system.cpu0.kern.syscall_getsysinfo                 1      0.15%     99.85%
system.cpu0.kern.syscall_setsysinfo                 1      0.15%    100.00%
system.cpu0.numCycles                      1168565757                      
system.cpu0inst_class_dist.start_dist
                   All ops ready            0      0.00%           
                One op not ready            0      0.00%           
           None rdy, mult chains            0      0.00%           
           None rdy, one chained            0      0.00%           
        None rdy, all self-timed            0      0.00%           
system.cpu0inst_class_dist.end_dist
system.htbus.addr_idle_cycles              1167590917                      
system.htbus.addr_idle_fraction              0.999166                      
system.htbus.addr_queued                    41.550357                      
system.htbus.addr_queued_cycles               5609963                      
system.htbus.addr_requests                     135016                      
system.htbus.bus_blocked                            0                      
system.htbus.bus_blocked_cycles                     0                      
system.htbus.bus_blocked_fraction                   0                      
system.htbus.data_idle_cycles              1167489080                      
system.htbus.data_idle_fraction              0.999079                      
system.htbus.data_queued                            1                      
system.htbus.data_queued_cycles                  8890                      
system.htbus.data_requests                       8890                      
system.htbus.null_grants                            0                      
system.kern.fnCalls                                 0                      
system.l2.avg_blocked_cycles_no_mshrs    <err: div-0>                      
system.l2.avg_blocked_cycles_no_targets  <err: div-0>                      
system.l2.avg_refs                           2.368247                      
system.l2.blocked_no_mshrs                          0                      
system.l2.blocked_no_targets                        0                      
system.l2.blocked_cycles_no_mshrs                   0                      
system.l2.blocked_cycles_no_targets                 0                      
system.l2.cache_copies                              0                      
system.l2.demand_accesses                     3317431                      
system.l2.demand_avg_miss_latency           68.885509                      
system.l2.demand_avg_mshr_miss_latency      38.964949                      
system.l2.demand_hits                         2136453                      
system.l2.demand_miss_latency                81352271                      
system.l2.demand_miss_rate                   0.355992                      
system.l2.demand_misses                       1180978                      
system.l2.demand_mshr_hits                          0                      
system.l2.demand_mshr_miss_latency           46016747                      
system.l2.demand_mshr_miss_rate              0.355992                      
system.l2.demand_mshr_misses                  1180978                      
system.l2.fast_writes                               0                      
system.l2.mshr_cap_events                           0                      
system.l2.no_allocate_misses                        0                      
system.l2.overall_accesses                    3974087                      
system.l2.overall_avg_miss_latency          68.885509                      
system.l2.overall_avg_mshr_miss_latency     38.964949                      
system.l2.overall_avg_mshr_uncacheable_latency   244.856809                      
system.l2.overall_hits                        2793109                      
system.l2.overall_miss_latency               81352271                      
system.l2.overall_miss_rate                  0.297170                      
system.l2.overall_misses                      1180978                      
system.l2.overall_mshr_hits                         0                      
system.l2.overall_mshr_miss_latency          46016747                      
system.l2.overall_mshr_miss_rate             0.297170                      
system.l2.overall_mshr_misses                 1180978                      
system.l2.overall_mshr_uncacheable_latency      5338613                      
system.l2.overall_mshr_uncacheable_misses        21803                      
system.l2.prefetcher.num_hwpf_already_in_cache            0                      
system.l2.prefetcher.num_hwpf_already_in_mshr            0                      
system.l2.prefetcher.num_hwpf_already_in_prefetcher            0                      
system.l2.prefetcher.num_hwpf_evicted               0                      
system.l2.prefetcher.num_hwpf_identified            0                      
system.l2.prefetcher.num_hwpf_issued                0                      
system.l2.prefetcher.num_hwpf_removed_MSHR_hit            0                      
system.l2.prefetcher.num_hwpf_span_page             0                      
system.l2.prefetcher.num_hwpf_squashed_from_miss            0                      
system.l2.read_accesses                       3317431                      
system.l2.read_avg_miss_latency             68.885509                      
system.l2.read_avg_mshr_miss_latency        38.964949                      
system.l2.read_avg_mshr_uncacheable_latency   229.756397                      
system.l2.read_hits                           2136453                      
system.l2.read_miss_latency                  81352271                      
system.l2.read_miss_rate                     0.355992                      
system.l2.read_misses                         1180978                      
system.l2.read_mshr_miss_latency             46016747                      
system.l2.read_mshr_miss_rate                0.355992                      
system.l2.read_mshr_misses                    1180978                      
system.l2.read_mshr_uncacheable                  9692                      
system.l2.read_mshr_uncacheable_latency       2226799                      
system.l2.replacements                        1146907                      
system.l2.sampled_refs                        1179063                      
system.l2.soft_prefetch_mshr_full                   0                      
system.l2.tagsinuse                      32444.785391                      
system.l2.total_refs                          2792313                      
system.l2.warmup_cycle                        3628672                      
system.l2.write_avg_mshr_uncacheable_latency   256.941128                      
system.l2.write_mshr_uncacheable                12111                      
system.l2.write_mshr_uncacheable_latency      3111814                      
system.l2.writeback_accesses                   656656                      
system.l2.writeback_hits                       656656                      
system.l2.writebacks                           145502                      
system.l2bus.addr_idle_cycles              1164501907                      
system.l2bus.addr_idle_fraction              0.996522                      
system.l2bus.addr_queued                     4.050290                      
system.l2bus.addr_queued_cycles              16455835                      
system.l2bus.addr_requests                    4062878                      
system.l2bus.bus_blocked                          219                      
system.l2bus.bus_blocked_cycles                104894                      
system.l2bus.bus_blocked_fraction            0.000090                      
system.l2bus.data_idle_cycles              1164569793                      
system.l2bus.data_idle_fraction              0.996580                      
system.l2bus.data_queued                     1.016479                      
system.l2bus.data_queued_cycles               3381978                      
system.l2bus.data_requests                    3327149                      
system.l2bus.null_grants                        41055                      
system.membus.addr_idle_cycles             1167091631                      
system.membus.addr_idle_fraction             0.998739                      
system.membus.addr_queued                   26.591015                      
system.membus.addr_queued_cycles             39094668                      
system.membus.addr_requests                   1470221                      
system.membus.bus_blocked                           0                      
system.membus.bus_blocked_cycles                    0                      
system.membus.bus_blocked_fraction                  0                      
system.membus.data_idle_cycles             1163014051                      
system.membus.data_idle_fraction             0.995249                      
system.membus.data_queued                    2.146854                      
system.membus.data_queued_cycles              2556682                      
system.membus.data_requests                   1190897                      
system.membus.null_grants                           0                      
system.pcibus.addr_idle_cycles             1167243432                      
system.pcibus.addr_idle_fraction             0.998868                      
system.pcibus.addr_queued                  563.614860                      
system.pcibus.addr_queued_cycles             76097024                      
system.pcibus.addr_requests                    135016                      
system.pcibus.bus_blocked                        3426                      
system.pcibus.bus_blocked_cycles               109629                      
system.pcibus.bus_blocked_fraction           0.000094                      
system.pcibus.data_idle_cycles             1166354850                      
system.pcibus.data_idle_fraction             0.998108                      
system.pcibus.data_queued                    3.256130                      
system.pcibus.data_queued_cycles                28947                      
system.pcibus.data_requests                      8890                      
system.pcibus.null_grants                           0                      
system.ram.accesses                           1381507                      
system.ram.bytes_requested                          0                      
system.ram.bytes_sent                               0                      
system.ram.compressed_responses                     0                      
system.tsunami.etherdev0.coalescedRxDesc <err: div-0>                      
system.tsunami.etherdev0.coalescedRxIdle <err: div-0>                      
system.tsunami.etherdev0.coalescedRxOk       no value                      
system.tsunami.etherdev0.coalescedRxOrn  <err: div-0>                      
system.tsunami.etherdev0.coalescedSwi    <err: div-0>                      
system.tsunami.etherdev0.coalescedTotal  <err: div-0>                      
system.tsunami.etherdev0.coalescedTxDesc <err: div-0>                      
system.tsunami.etherdev0.coalescedTxIdle <err: div-0>                      
system.tsunami.etherdev0.coalescedTxOk   <err: div-0>                      
system.tsunami.etherdev0.descDMAReads               0                      
system.tsunami.etherdev0.descDMAWrites              0                      
system.tsunami.etherdev0.descDmaReadBytes            0                      
system.tsunami.etherdev0.descDmaWriteBytes            0                      
system.tsunami.etherdev0.dma.avg_large_transaction_latency <err: div-0>                      
system.tsunami.etherdev0.dma.avg_small_transaction_latency <err: div-0>                      
system.tsunami.etherdev0.dma.avg_transaction_latency <err: div-0>                      
system.tsunami.etherdev0.dma.bytes_transfered            0                      
system.tsunami.etherdev0.dma.large_transaction_latency            0                      
system.tsunami.etherdev0.dma.large_transactions            0                      
system.tsunami.etherdev0.dma.packets_sent            0                      
system.tsunami.etherdev0.dma.requests               0                      
system.tsunami.etherdev0.dma.round_trip_latency     no value                      
system.tsunami.etherdev0.dma.small_transaction_latency            0                      
system.tsunami.etherdev0.dma.small_transactions            0                      
system.tsunami.etherdev0.dma.total_cycle_latency            0                      
system.tsunami.etherdev0.dma.transaction_latency            0                      
system.tsunami.etherdev0.droppedPackets             0                      
system.tsunami.etherdev0.postedInterrupts            0                      
system.tsunami.etherdev0.postedRxDesc               0                      
system.tsunami.etherdev0.postedRxIdle               0                      
system.tsunami.etherdev0.postedRxOk                 0                      
system.tsunami.etherdev0.postedRxOrn                0                      
system.tsunami.etherdev0.postedSwi                  0                      
system.tsunami.etherdev0.postedTxDesc               0                      
system.tsunami.etherdev0.postedTxIdle               0                      
system.tsunami.etherdev0.postedTxOk                 0                      
system.tsunami.etherdev0.totalRxDesc                0                      
system.tsunami.etherdev0.totalRxIdle                0                      
system.tsunami.etherdev0.totalRxOk                  0                      
system.tsunami.etherdev0.totalRxOrn                 0                      
system.tsunami.etherdev0.totalSwi                   0                      
system.tsunami.etherdev0.totalTxDesc                0                      
system.tsunami.etherdev0.totalTxIdle                0                      
system.tsunami.etherdev0.totalTxOk                  0                      
system.tsunami.ide.dma.avg_large_transaction_latency  2838.305927                      
system.tsunami.ide.dma.avg_small_transaction_latency   254.890995                      
system.tsunami.ide.dma.avg_transaction_latency  2095.662125                      
system.tsunami.ide.dma.bytes_transfered       3521040                      
system.tsunami.ide.dma.large_transaction_latency      1484434                      
system.tsunami.ide.dma.large_transactions          523                      
system.tsunami.ide.dma.packets_sent             55027                      
system.tsunami.ide.dma.requests                   734                      
system.tsunami.ide.dma.round_trip_latency  1597.316408                      
system.tsunami.ide.dma.small_transaction_latency        53782                      
system.tsunami.ide.dma.small_transactions          211                      
system.tsunami.ide.dma.total_cycle_latency     87895530                      
system.tsunami.ide.dma.transaction_latency      1538216                      

---------- End Simulation Statistics   ----------
