system.cpu0.POWER.DYNAMIC:bpred_block_average     0.254514                      
system.cpu0.POWER.DYNAMIC:dcache_block_average     0.664614                      
system.cpu0.POWER.DYNAMIC:dtlb_block_average     0.007699                      
system.cpu0.POWER.DYNAMIC:fpalu_block_average     0.191681                      
system.cpu0.POWER.DYNAMIC:fpmap_block_average     0.021895                      
system.cpu0.POWER.DYNAMIC:fpmul_block_average     0.191664                      
system.cpu0.POWER.DYNAMIC:fpq_block_average     0.115354                      
system.cpu0.POWER.DYNAMIC:fpreg_block_average     0.073253                      
system.cpu0.POWER.DYNAMIC:icache_block_average     0.485378                      
system.cpu0.POWER.DYNAMIC:intalu_block_average     0.608303                      
system.cpu0.POWER.DYNAMIC:intmap_block_average     0.029951                      
system.cpu0.POWER.DYNAMIC:intq_block_average     0.247600                      
system.cpu0.POWER.DYNAMIC:intreg_block_average     0.235015                      
system.cpu0.POWER.DYNAMIC:itlb_block_average     0.005623                      
system.cpu0.POWER.DYNAMIC:lsq_block_average     0.088059                      
3.220603


---------- Begin Simulation Statistics ----------
host_inst_rate                                  26972                      
host_mem_usage                                 195192                      
host_seconds                                  5413.67                      
host_tick_rate                                 185102                      
sim_freq                                    450000000                      
sim_insts                                   146017274                      
sim_seconds                                  2.226848                      
sim_ticks                                  1002081507                      
system.cpu0.COM:IPB                          4.837374                      
system.cpu0.COM:IPC                          0.145714                      
system.cpu0.COM:branches                     30185233                      
system.cpu0.COM:bw_lim_avg               <err: div-0>                      
system.cpu0.COM:bw_lim_events                       0                      
system.cpu0.COM:bw_lim_rate                    0.0000                      
system.cpu0.COM:bw_lim_stdev_0_mean      <err: div-0>                      
system.cpu0.COM:bw_lim_stdev_0_stdev     <err: div-0>                      
**Ignore: system.cpu0.COM:bw_lim_stdev_0_TOT       0.0000                      
system.cpu0.COM:bw_limited                          0                      
system.cpu0.COM:committed_per_cycle.start_dist
system.cpu0.COM:committed_per_cycle.samples     48247472                      
system.cpu0.COM:committed_per_cycle.min_value            0                      
                               0       400054     82.92%           
                               1     10032633   2079.41%           
                               2      5878644   1218.44%           
                               3      3304329    684.87%           
                               4     28631812   5934.37%           
system.cpu0.COM:committed_per_cycle.max_value            4                      
system.cpu0.COM:committed_per_cycle.end_dist

system.cpu0.COM:count                       146017274                      
system.cpu0.COM:loads                        17293879                      
system.cpu0.COM:membars                        306663                      
system.cpu0.COM:refs                         28256708                      
system.cpu0.COM:stores                       10962829                      
system.cpu0.COM:swp_count                      212882                      
system.cpu0.DDQ:count                      9503776689                      
system.cpu0.DDQ:rate                                9                      
system.cpu0.DIS:chain_creation.start_dist
     Inst has no outstanding IDEPS            0      0.00%           
      IDEP chain reached max depth            0      0.00%           
                    Inst is a load            0      0.00%           
  Chain has multiple chained IDEPS            0      0.00%           
system.cpu0.DIS:chain_creation.end_dist
system.cpu0.DIS:chain_head_frac                     0                      
system.cpu0.DIS:chain_heads                         0                      
system.cpu0.DIS:chains_insuf                        0                      
system.cpu0.DIS:chains_insuf_rate                   0                      
system.cpu0.DIS:count                       167621481                      
system.cpu0.DIS:insufficient_chains                 0                      
system.cpu0.DIS:mod_n_stall_avg_free     <err: div-0>                      
system.cpu0.DIS:mod_n_stall_frac                    0                      
system.cpu0.DIS:mod_n_stall_free                    0                      
system.cpu0.DIS:mod_n_stalls                        0                      
system.cpu0.DIS:one_rdy_insts                       0                      
system.cpu0.DIS:one_rdy_ratio            <err: div-0>                      
system.cpu0.DIS:op_count                    201636425                      
system.cpu0.DIS:op_rate                      0.201218                      
system.cpu0.DIS:rate                         0.167273                      
system.cpu0.DIS:second_choice_clust                 0                      
system.cpu0.DIS:second_choice_stall                 0                      
system.cpu0.DIS:serialize_stall_cycles        9667593                      
system.cpu0.DIS:serializing_insts              293813                      
system.cpu0.DIS:two_input_insts                     0                      
system.cpu0.DIS:two_input_ratio                     0                      
system.cpu0.FETCH:branch_count               45767946                      
system.cpu0.FETCH:branch_rate                0.045673                      
system.cpu0.FETCH:chance_pct                        1                      
system.cpu0.FETCH:chances                    65192826                      
system.cpu0.FETCH:choice                     65192826                      
system.cpu0.FETCH:count                     230317375                      
system.cpu0.FETCH:decisions                  65192826                      
system.cpu0.FETCH:idle_cycles               936888682                      
system.cpu0.FETCH:idle_icache_blocked_cycles            0                      
system.cpu0.FETCH:idle_rate                     93.49                      
system.cpu0.FETCH:prio_changes                      0                      
system.cpu0.FETCH:rate                       0.229839                      
system.cpu0.FETCH:rate_dist.start_dist    
system.cpu0.FETCH:rate_dist.samples          65192826                      
system.cpu0.FETCH:rate_dist.min_value               0                      
                               0       194017     29.76%           
                               1      5525369    847.54%           
                               2      2912900    446.81%           
                               3      7275954   1116.07%           
                               4     49284586   7559.82%           
system.cpu0.FETCH:rate_dist.max_value               4                      
system.cpu0.FETCH:rate_dist.end_dist

system.cpu0.FETCH:rate_dist_0.start_dist  
system.cpu0.FETCH:rate_dist_0.samples        65192826                      
system.cpu0.FETCH:rate_dist_0.min_value             0                      
                               0       194017     29.76%           
                               1      5525369    847.54%           
                               2      2912900    446.81%           
                               3      7275954   1116.07%           
                               4     49284586   7559.82%           
system.cpu0.FETCH:rate_dist_0.max_value             4                      
system.cpu0.FETCH:rate_dist_0.end_dist

system.cpu0.IFQ:count                      3951165793                      
system.cpu0.IFQ:full_count                  113321543                      
system.cpu0.IFQ:full_rate                   11.308615                      
system.cpu0.IFQ:latency                     23.571954                      
system.cpu0.IFQ:occupancy                    3.942958                      
system.cpu0.IFQ:qfull_iq_occ               5580087924                      
system.cpu0.IFQ:qfull_iq_occ_dist_0.start_dist
system.cpu0.IFQ:qfull_iq_occ_dist_0.samples     94821534                      
system.cpu0.IFQ:qfull_iq_occ_dist_0.min_value            0                      
                               0      5983740    631.05%           
                              10       792609     83.59%           
                              20       667565     70.40%           
                              30       790658     83.38%           
                              40      1012437    106.77%           
                              50       962554    101.51%           
                              60     84611971   8923.29%           
system.cpu0.IFQ:qfull_iq_occ_dist_0.max_value           64                      
system.cpu0.IFQ:qfull_iq_occ_dist_0.end_dist

system.cpu0.IFQ:qfull_rob_occ              8679995502                      
system.cpu0.IFQ:qfull_rob_occ_dist_0.start_dist
system.cpu0.IFQ:qfull_rob_occ_dist_0.samples     94821534                      
system.cpu0.IFQ:qfull_rob_occ_dist_0.min_value            1                      
                               0      1297766    136.86%           
                              10      1790601    188.84%           
                              20      1225955    129.29%           
                              30       487285     51.39%           
                              40       299180     31.55%           
                              50       212004     22.36%           
                              60      5603639    590.97%           
                              70      1510079    159.25%           
                              80       686905     72.44%           
                              90     76730904   8092.14%           
                             100      1106751    116.72%           
                             110      1586146    167.28%           
                             120      2284319    240.91%           
                             130            0      0.00%           
system.cpu0.IFQ:qfull_rob_occ_dist_0.max_value          128                      
system.cpu0.IFQ:qfull_rob_occ_dist_0.end_dist

system.cpu0.IQ:cap_events                           0                      
system.cpu0.IQ:cap_inst                             0                      
system.cpu0.IQ:residence:(null).start_dist
system.cpu0.IQ:residence:(null).samples          9532                      
system.cpu0.IQ:residence:(null).min_value            1                      
                               0         8576   8997.06%   8997.06%
                               2          628    658.83%   9655.90%
                               4          161    168.90%   9824.80%
                               6           25     26.23%   9851.03%
                               8          124    130.09%   9981.12%
                              10            6      6.29%   9987.41%
                              12            4      4.20%   9991.61%
                              14            0      0.00%   9991.61%
                              16            3      3.15%   9994.75%
                              18            0      0.00%   9994.75%
                              20            4      4.20%   9998.95%
                              22            1      1.05%  10000.00%
                              24            0      0.00%  10000.00%
                              26            0      0.00%  10000.00%
                              28            0      0.00%  10000.00%
                              30            0      0.00%  10000.00%
                              32            0      0.00%  10000.00%
                              34            0      0.00%  10000.00%
                              36            0      0.00%  10000.00%
                              38            0      0.00%  10000.00%
                              40            0      0.00%  10000.00%
                              42            0      0.00%  10000.00%
                              44            0      0.00%  10000.00%
                              46            0      0.00%  10000.00%
                              48            0      0.00%  10000.00%
                              50            0      0.00%  10000.00%
                              52            0      0.00%  10000.00%
                              54            0      0.00%  10000.00%
                              56            0      0.00%  10000.00%
                              58            0      0.00%  10000.00%
                              60            0      0.00%  10000.00%
                              62            0      0.00%  10000.00%
                              64            0      0.00%  10000.00%
                              66            0      0.00%  10000.00%
                              68            0      0.00%  10000.00%
                              70            0      0.00%  10000.00%
                              72            0      0.00%  10000.00%
                              74            0      0.00%  10000.00%
                              76            0      0.00%  10000.00%
                              78            0      0.00%  10000.00%
                              80            0      0.00%  10000.00%
                              82            0      0.00%  10000.00%
                              84            0      0.00%  10000.00%
                              86            0      0.00%  10000.00%
                              88            0      0.00%  10000.00%
                              90            0      0.00%  10000.00%
                              92            0      0.00%  10000.00%
                              94            0      0.00%  10000.00%
                              96            0      0.00%  10000.00%
                              98            0      0.00%  10000.00%
system.cpu0.IQ:residence:(null).max_value           23                      
system.cpu0.IQ:residence:(null).end_dist

system.cpu0.IQ:residence:IntAlu.start_dist
system.cpu0.IQ:residence:IntAlu.samples     123043982                      
system.cpu0.IQ:residence:IntAlu.min_value            1                      
                               0     33562946   2727.72%   2727.72%
                               2     34798823   2828.16%   5555.88%
                               4      6527033    530.46%   6086.34%
                               6      5173924    420.49%   6506.84%
                               8      4110582    334.07%   6840.91%
                              10      2764923    224.71%   7065.62%
                              12      2545037    206.84%   7272.46%
                              14      4316134    350.78%   7623.24%
                              16      4893249    397.68%   8020.92%
                              18      2765832    224.78%   8245.71%
                              20      2645072    214.97%   8460.68%
                              22      3239157    263.25%   8723.93%
                              24      1935367    157.29%   8881.22%
                              26      1000780     81.34%   8962.56%
                              28       621209     50.49%   9013.04%
                              30       619741     50.37%   9063.41%
                              32       560993     45.59%   9109.00%
                              34       458947     37.30%   9146.30%
                              36       551459     44.82%   9191.12%
                              38       496103     40.32%   9231.44%
                              40       427205     34.72%   9266.16%
                              42       327613     26.63%   9292.79%
                              44       342229     27.81%   9320.60%
                              46       301820     24.53%   9345.13%
                              48       248273     20.18%   9365.31%
                              50       241635     19.64%   9384.94%
                              52       240693     19.56%   9404.51%
                              54       252888     20.55%   9425.06%
                              56       107737      8.76%   9433.81%
                              58       129599     10.53%   9444.35%
                              60       112975      9.18%   9453.53%
                              62       202823     16.48%   9470.01%
                              64       115152      9.36%   9479.37%
                              66        95220      7.74%   9487.11%
                              68       105674      8.59%   9495.70%
                              70        76346      6.20%   9501.90%
                              72        81297      6.61%   9508.51%
                              74        66048      5.37%   9513.88%
                              76        93209      7.58%   9521.45%
                              78       103107      8.38%   9529.83%
                              80        53442      4.34%   9534.18%
                              82        51890      4.22%   9538.39%
                              84        51702      4.20%   9542.59%
                              86        58169      4.73%   9547.32%
                              88        65258      5.30%   9552.63%
                              90        73924      6.01%   9558.63%
                              92        40316      3.28%   9561.91%
                              94        44009      3.58%   9565.49%
                              96        40827      3.32%   9568.81%
                              98        65822      5.35%   9574.15%
system.cpu0.IQ:residence:IntAlu.overflows      5239769                      
system.cpu0.IQ:residence:IntAlu.max_value        20972                      
system.cpu0.IQ:residence:IntAlu.end_dist

system.cpu0.IQ:residence:IntMult.start_dist
system.cpu0.IQ:residence:IntMult.samples       385744                      
system.cpu0.IQ:residence:IntMult.min_value            1                      
                               0         6754    175.09%    175.09%
                               2         4885    126.64%    301.73%
                               4        10585    274.40%    576.13%
                               6         7087    183.72%    759.86%
                               8         8202    212.63%    972.48%
                              10         7390    191.58%   1164.06%
                              12         6002    155.60%   1319.66%
                              14         8638    223.93%   1543.59%
                              16         8751    226.86%   1770.45%
                              18        18433    477.86%   2248.30%
                              20        92253   2391.56%   4639.86%
                              22       119144   3088.68%   7728.55%
                              24        47128   1221.74%   8950.29%
                              26         4197    108.80%   9059.09%
                              28          397     10.29%   9069.38%
                              30         3289     85.26%   9154.65%
                              32         2918     75.65%   9230.29%
                              34         2934     76.06%   9306.35%
                              36         3470     89.96%   9396.31%
                              38         2409     62.45%   9458.76%
                              40         9741    252.52%   9711.29%
                              42         1159     30.05%   9741.33%
                              44          294      7.62%   9748.95%
                              46          119      3.08%   9752.04%
                              48          364      9.44%   9761.47%
                              50          219      5.68%   9767.15%
                              52          289      7.49%   9774.64%
                              54          396     10.27%   9784.91%
                              56          539     13.97%   9798.88%
                              58          101      2.62%   9801.50%
                              60           23      0.60%   9802.10%
                              62           41      1.06%   9803.16%
                              64           47      1.22%   9804.38%
                              66           59      1.53%   9805.91%
                              68           91      2.36%   9808.27%
                              70          505     13.09%   9821.36%
                              72          309      8.01%   9829.37%
                              74          431     11.17%   9840.54%
                              76           89      2.31%   9842.85%
                              78           89      2.31%   9845.16%
                              80          150      3.89%   9849.04%
                              82           83      2.15%   9851.20%
                              84           45      1.17%   9852.36%
                              86            8      0.21%   9852.57%
                              88           45      1.17%   9853.74%
                              90           13      0.34%   9854.07%
                              92            6      0.16%   9854.23%
                              94           16      0.41%   9854.64%
                              96            4      0.10%   9854.75%
                              98            5      0.13%   9854.88%
system.cpu0.IQ:residence:IntMult.overflows         5598                      
system.cpu0.IQ:residence:IntMult.max_value          780                      
system.cpu0.IQ:residence:IntMult.end_dist

system.cpu0.IQ:residence:IntDiv.start_dist
system.cpu0.IQ:residence:IntDiv.samples             0                      
system.cpu0.IQ:residence:IntDiv.min_value            0                      
                               0            0                      
                               2            0                      
                               4            0                      
                               6            0                      
                               8            0                      
                              10            0                      
                              12            0                      
                              14            0                      
                              16            0                      
                              18            0                      
                              20            0                      
                              22            0                      
                              24            0                      
                              26            0                      
                              28            0                      
                              30            0                      
                              32            0                      
                              34            0                      
                              36            0                      
                              38            0                      
                              40            0                      
                              42            0                      
                              44            0                      
                              46            0                      
                              48            0                      
                              50            0                      
                              52            0                      
                              54            0                      
                              56            0                      
                              58            0                      
                              60            0                      
                              62            0                      
                              64            0                      
                              66            0                      
                              68            0                      
                              70            0                      
                              72            0                      
                              74            0                      
                              76            0                      
                              78            0                      
                              80            0                      
                              82            0                      
                              84            0                      
                              86            0                      
                              88            0                      
                              90            0                      
                              92            0                      
                              94            0                      
                              96            0                      
                              98            0                      
system.cpu0.IQ:residence:IntDiv.max_value            0                      
system.cpu0.IQ:residence:IntDiv.end_dist

system.cpu0.IQ:residence:FloatAdd.start_dist
system.cpu0.IQ:residence:FloatAdd.samples        10062                      
system.cpu0.IQ:residence:FloatAdd.min_value            1                      
                               0          123    122.24%    122.24%
                               2          212    210.69%    332.94%
                               4          162    161.00%    493.94%
                               6         2473   2457.76%   2951.70%
                               8           38     37.77%   2989.47%
                              10          467    464.12%   3453.59%
                              12          878    872.59%   4326.18%
                              14          419    416.42%   4742.60%
                              16         2445   2429.93%   7172.53%
                              18            5      4.97%   7177.50%
                              20            0      0.00%   7177.50%
                              22            0      0.00%   7177.50%
                              24            0      0.00%   7177.50%
                              26            0      0.00%   7177.50%
                              28            2      1.99%   7179.49%
                              30            0      0.00%   7179.49%
                              32            4      3.98%   7183.46%
                              34           49     48.70%   7232.16%
                              36         1917   1905.19%   9137.35%
                              38          863    857.68%   9995.03%
                              40            1      0.99%   9996.02%
                              42            0      0.00%   9996.02%
                              44            0      0.00%   9996.02%
                              46            0      0.00%   9996.02%
                              48            0      0.00%   9996.02%
                              50            0      0.00%   9996.02%
                              52            0      0.00%   9996.02%
                              54            0      0.00%   9996.02%
                              56            0      0.00%   9996.02%
                              58            0      0.00%   9996.02%
                              60            0      0.00%   9996.02%
                              62            0      0.00%   9996.02%
                              64            0      0.00%   9996.02%
                              66            0      0.00%   9996.02%
                              68            0      0.00%   9996.02%
                              70            0      0.00%   9996.02%
                              72            0      0.00%   9996.02%
                              74            0      0.00%   9996.02%
                              76            0      0.00%   9996.02%
                              78            0      0.00%   9996.02%
                              80            0      0.00%   9996.02%
                              82            0      0.00%   9996.02%
                              84            0      0.00%   9996.02%
                              86            3      2.98%   9999.01%
                              88            0      0.00%   9999.01%
                              90            0      0.00%   9999.01%
                              92            0      0.00%   9999.01%
                              94            1      0.99%  10000.00%
                              96            0      0.00%  10000.00%
                              98            0      0.00%  10000.00%
system.cpu0.IQ:residence:FloatAdd.max_value           94                      
system.cpu0.IQ:residence:FloatAdd.end_dist

system.cpu0.IQ:residence:FloatCmp.start_dist
system.cpu0.IQ:residence:FloatCmp.samples            0                      
system.cpu0.IQ:residence:FloatCmp.min_value            0                      
                               0            0                      
                               2            0                      
                               4            0                      
                               6            0                      
                               8            0                      
                              10            0                      
                              12            0                      
                              14            0                      
                              16            0                      
                              18            0                      
                              20            0                      
                              22            0                      
                              24            0                      
                              26            0                      
                              28            0                      
                              30            0                      
                              32            0                      
                              34            0                      
                              36            0                      
                              38            0                      
                              40            0                      
                              42            0                      
                              44            0                      
                              46            0                      
                              48            0                      
                              50            0                      
                              52            0                      
                              54            0                      
                              56            0                      
                              58            0                      
                              60            0                      
                              62            0                      
                              64            0                      
                              66            0                      
                              68            0                      
                              70            0                      
                              72            0                      
                              74            0                      
                              76            0                      
                              78            0                      
                              80            0                      
                              82            0                      
                              84            0                      
                              86            0                      
                              88            0                      
                              90            0                      
                              92            0                      
                              94            0                      
                              96            0                      
                              98            0                      
system.cpu0.IQ:residence:FloatCmp.max_value            0                      
system.cpu0.IQ:residence:FloatCmp.end_dist

system.cpu0.IQ:residence:FloatCvt.start_dist
system.cpu0.IQ:residence:FloatCvt.samples            0                      
system.cpu0.IQ:residence:FloatCvt.min_value            0                      
                               0            0                      
                               2            0                      
                               4            0                      
                               6            0                      
                               8            0                      
                              10            0                      
                              12            0                      
                              14            0                      
                              16            0                      
                              18            0                      
                              20            0                      
                              22            0                      
                              24            0                      
                              26            0                      
                              28            0                      
                              30            0                      
                              32            0                      
                              34            0                      
                              36            0                      
                              38            0                      
                              40            0                      
                              42            0                      
                              44            0                      
                              46            0                      
                              48            0                      
                              50            0                      
                              52            0                      
                              54            0                      
                              56            0                      
                              58            0                      
                              60            0                      
                              62            0                      
                              64            0                      
                              66            0                      
                              68            0                      
                              70            0                      
                              72            0                      
                              74            0                      
                              76            0                      
                              78            0                      
                              80            0                      
                              82            0                      
                              84            0                      
                              86            0                      
                              88            0                      
                              90            0                      
                              92            0                      
                              94            0                      
                              96            0                      
                              98            0                      
system.cpu0.IQ:residence:FloatCvt.max_value            0                      
system.cpu0.IQ:residence:FloatCvt.end_dist

system.cpu0.IQ:residence:FloatMult.start_dist
system.cpu0.IQ:residence:FloatMult.samples            2                      
system.cpu0.IQ:residence:FloatMult.min_value            5                      
                               0            0      0.00%      0.00%
                               2            0      0.00%      0.00%
                               4            2  10000.00%  10000.00%
                               6            0      0.00%  10000.00%
                               8            0      0.00%  10000.00%
                              10            0      0.00%  10000.00%
                              12            0      0.00%  10000.00%
                              14            0      0.00%  10000.00%
                              16            0      0.00%  10000.00%
                              18            0      0.00%  10000.00%
                              20            0      0.00%  10000.00%
                              22            0      0.00%  10000.00%
                              24            0      0.00%  10000.00%
                              26            0      0.00%  10000.00%
                              28            0      0.00%  10000.00%
                              30            0      0.00%  10000.00%
                              32            0      0.00%  10000.00%
                              34            0      0.00%  10000.00%
                              36            0      0.00%  10000.00%
                              38            0      0.00%  10000.00%
                              40            0      0.00%  10000.00%
                              42            0      0.00%  10000.00%
                              44            0      0.00%  10000.00%
                              46            0      0.00%  10000.00%
                              48            0      0.00%  10000.00%
                              50            0      0.00%  10000.00%
                              52            0      0.00%  10000.00%
                              54            0      0.00%  10000.00%
                              56            0      0.00%  10000.00%
                              58            0      0.00%  10000.00%
                              60            0      0.00%  10000.00%
                              62            0      0.00%  10000.00%
                              64            0      0.00%  10000.00%
                              66            0      0.00%  10000.00%
                              68            0      0.00%  10000.00%
                              70            0      0.00%  10000.00%
                              72            0      0.00%  10000.00%
                              74            0      0.00%  10000.00%
                              76            0      0.00%  10000.00%
                              78            0      0.00%  10000.00%
                              80            0      0.00%  10000.00%
                              82            0      0.00%  10000.00%
                              84            0      0.00%  10000.00%
                              86            0      0.00%  10000.00%
                              88            0      0.00%  10000.00%
                              90            0      0.00%  10000.00%
                              92            0      0.00%  10000.00%
                              94            0      0.00%  10000.00%
                              96            0      0.00%  10000.00%
                              98            0      0.00%  10000.00%
system.cpu0.IQ:residence:FloatMult.max_value            5                      
system.cpu0.IQ:residence:FloatMult.end_dist

system.cpu0.IQ:residence:FloatDiv.start_dist
system.cpu0.IQ:residence:FloatDiv.samples           60                      
system.cpu0.IQ:residence:FloatDiv.min_value            6                      
                               0            0      0.00%      0.00%
                               2            0      0.00%      0.00%
                               4            0      0.00%      0.00%
                               6           59   9833.33%   9833.33%
                               8            0      0.00%   9833.33%
                              10            0      0.00%   9833.33%
                              12            0      0.00%   9833.33%
                              14            0      0.00%   9833.33%
                              16            0      0.00%   9833.33%
                              18            0      0.00%   9833.33%
                              20            0      0.00%   9833.33%
                              22            0      0.00%   9833.33%
                              24            0      0.00%   9833.33%
                              26            0      0.00%   9833.33%
                              28            0      0.00%   9833.33%
                              30            1    166.67%  10000.00%
                              32            0      0.00%  10000.00%
                              34            0      0.00%  10000.00%
                              36            0      0.00%  10000.00%
                              38            0      0.00%  10000.00%
                              40            0      0.00%  10000.00%
                              42            0      0.00%  10000.00%
                              44            0      0.00%  10000.00%
                              46            0      0.00%  10000.00%
                              48            0      0.00%  10000.00%
                              50            0      0.00%  10000.00%
                              52            0      0.00%  10000.00%
                              54            0      0.00%  10000.00%
                              56            0      0.00%  10000.00%
                              58            0      0.00%  10000.00%
                              60            0      0.00%  10000.00%
                              62            0      0.00%  10000.00%
                              64            0      0.00%  10000.00%
                              66            0      0.00%  10000.00%
                              68            0      0.00%  10000.00%
                              70            0      0.00%  10000.00%
                              72            0      0.00%  10000.00%
                              74            0      0.00%  10000.00%
                              76            0      0.00%  10000.00%
                              78            0      0.00%  10000.00%
                              80            0      0.00%  10000.00%
                              82            0      0.00%  10000.00%
                              84            0      0.00%  10000.00%
                              86            0      0.00%  10000.00%
                              88            0      0.00%  10000.00%
                              90            0      0.00%  10000.00%
                              92            0      0.00%  10000.00%
                              94            0      0.00%  10000.00%
                              96            0      0.00%  10000.00%
                              98            0      0.00%  10000.00%
system.cpu0.IQ:residence:FloatDiv.max_value           30                      
system.cpu0.IQ:residence:FloatDiv.end_dist

system.cpu0.IQ:residence:FloatSqrt.start_dist
system.cpu0.IQ:residence:FloatSqrt.samples            0                      
system.cpu0.IQ:residence:FloatSqrt.min_value            0                      
                               0            0                      
                               2            0                      
                               4            0                      
                               6            0                      
                               8            0                      
                              10            0                      
                              12            0                      
                              14            0                      
                              16            0                      
                              18            0                      
                              20            0                      
                              22            0                      
                              24            0                      
                              26            0                      
                              28            0                      
                              30            0                      
                              32            0                      
                              34            0                      
                              36            0                      
                              38            0                      
                              40            0                      
                              42            0                      
                              44            0                      
                              46            0                      
                              48            0                      
                              50            0                      
                              52            0                      
                              54            0                      
                              56            0                      
                              58            0                      
                              60            0                      
                              62            0                      
                              64            0                      
                              66            0                      
                              68            0                      
                              70            0                      
                              72            0                      
                              74            0                      
                              76            0                      
                              78            0                      
                              80            0                      
                              82            0                      
                              84            0                      
                              86            0                      
                              88            0                      
                              90            0                      
                              92            0                      
                              94            0                      
                              96            0                      
                              98            0                      
system.cpu0.IQ:residence:FloatSqrt.max_value            0                      
system.cpu0.IQ:residence:FloatSqrt.end_dist

system.cpu0.IQ:residence:MemRead.start_dist
system.cpu0.IQ:residence:MemRead.samples     38331801                      
system.cpu0.IQ:residence:MemRead.min_value            1                      
                               0      4045879   1055.49%   1055.49%
                               2      6322751   1649.48%   2704.97%
                               4      3224698    841.26%   3546.23%
                               6      2628652    685.76%   4231.99%
                               8      1922921    501.65%   4733.64%
                              10      1592099    415.35%   5148.99%
                              12      1180394    307.94%   5456.93%
                              14      1057753    275.95%   5732.88%
                              16      1172406    305.86%   6038.73%
                              18      1702319    444.10%   6482.83%
                              20      2368389    617.87%   7100.70%
                              22      3015032    786.56%   7887.26%
                              24       991261    258.60%   8145.86%
                              26       245305     64.00%   8209.86%
                              28       204782     53.42%   8263.28%
                              30       161131     42.04%   8305.32%
                              32       143248     37.37%   8342.69%
                              34       211679     55.22%   8397.91%
                              36       246236     64.24%   8462.15%
                              38       246605     64.33%   8526.48%
                              40       170538     44.49%   8570.97%
                              42       186336     48.61%   8619.58%
                              44       135665     35.39%   8654.98%
                              46       173451     45.25%   8700.23%
                              48        82322     21.48%   8721.70%
                              50       119096     31.07%   8752.77%
                              52        73984     19.30%   8772.07%
                              54        87358     22.79%   8794.86%
                              56        45645     11.91%   8806.77%
                              58        50048     13.06%   8819.83%
                              60        74685     19.48%   8839.31%
                              62        66009     17.22%   8856.53%
                              64       123816     32.30%   8888.83%
                              66        31723      8.28%   8897.11%
                              68        58115     15.16%   8912.27%
                              70        39961     10.43%   8922.69%
                              72        40838     10.65%   8933.35%
                              74        33319      8.69%   8942.04%
                              76        26689      6.96%   8949.00%
                              78        66411     17.33%   8966.33%
                              80        40682     10.61%   8976.94%
                              82        27462      7.16%   8984.11%
                              84        38513     10.05%   8994.15%
                              86        47520     12.40%   9006.55%
                              88        21722      5.67%   9012.22%
                              90        23992      6.26%   9018.48%
                              92        23660      6.17%   9024.65%
                              94        32280      8.42%   9033.07%
                              96        23554      6.14%   9039.21%
                              98        11035      2.88%   9042.09%
system.cpu0.IQ:residence:MemRead.overflows      3671832                      
system.cpu0.IQ:residence:MemRead.max_value        20965                      
system.cpu0.IQ:residence:MemRead.end_dist

system.cpu0.IQ:residence:MemWrite.start_dist
system.cpu0.IQ:residence:MemWrite.samples     23098545                      
system.cpu0.IQ:residence:MemWrite.min_value            1                      
                               0      2100721    909.46%    909.46%
                               2      4147028   1795.36%   2704.82%
                               4      2420302   1047.82%   3752.64%
                               6      1994293    863.38%   4616.02%
                               8      1507370    652.58%   5268.61%
                              10       933048    403.94%   5672.55%
                              12       714231    309.21%   5981.76%
                              14       650578    281.65%   6263.41%
                              16       726771    314.64%   6578.05%
                              18       963093    416.95%   6995.00%
                              20      1266931    548.49%   7543.49%
                              22      1818993    787.49%   8330.98%
                              24       979466    424.04%   8755.02%
                              26       247317    107.07%   8862.09%
                              28       192196     83.21%   8945.30%
                              30       132941     57.55%   9002.85%
                              32       186038     80.54%   9083.39%
                              34       183924     79.63%   9163.02%
                              36       216415     93.69%   9256.71%
                              38       166365     72.02%   9328.74%
                              40       161612     69.97%   9398.70%
                              42       116687     50.52%   9449.22%
                              44       108327     46.90%   9496.12%
                              46        71634     31.01%   9527.13%
                              48        56410     24.42%   9551.55%
                              50       153574     66.49%   9618.04%
                              52        66298     28.70%   9646.74%
                              54        33868     14.66%   9661.40%
                              56        28410     12.30%   9673.70%
                              58        22271      9.64%   9683.34%
                              60        44004     19.05%   9702.39%
                              62        66252     28.68%   9731.08%
                              64       128052     55.44%   9786.51%
                              66        19115      8.28%   9794.79%
                              68        16399      7.10%   9801.89%
                              70        19702      8.53%   9810.42%
                              72        22992      9.95%   9820.37%
                              74        19514      8.45%   9828.82%
                              76        34567     14.97%   9843.78%
                              78        41734     18.07%   9861.85%
                              80        36560     15.83%   9877.68%
                              82        17885      7.74%   9885.42%
                              84        12202      5.28%   9890.71%
                              86         8486      3.67%   9894.38%
                              88        10921      4.73%   9899.11%
                              90        10655      4.61%   9903.72%
                              92        17031      7.37%   9911.09%
                              94         7278      3.15%   9914.24%
                              96         5648      2.45%   9916.69%
                              98         4711      2.04%   9918.73%
system.cpu0.IQ:residence:MemWrite.overflows       187725                      
system.cpu0.IQ:residence:MemWrite.max_value        20971                      
system.cpu0.IQ:residence:MemWrite.end_dist

system.cpu0.IQ:residence:IprAccess.start_dist
system.cpu0.IQ:residence:IprAccess.samples      1412738                      
system.cpu0.IQ:residence:IprAccess.min_value            1                      
                               0       293860   2080.07%   2080.07%
                               2       247468   1751.69%   3831.76%
                               4        80851    572.30%   4404.07%
                               6       268727   1902.17%   6306.24%
                               8       224499   1589.11%   7895.34%
                              10        63803    451.63%   8346.97%
                              12        46054    325.99%   8672.96%
                              14        37019    262.04%   8935.00%
                              16        34386    243.40%   9178.40%
                              18        18348    129.88%   9308.27%
                              20        17826    126.18%   9434.45%
                              22        18191    128.76%   9563.22%
                              24        11513     81.49%   9644.71%
                              26         3987     28.22%   9672.93%
                              28         5478     38.78%   9711.71%
                              30         2838     20.09%   9731.80%
                              32         1967     13.92%   9745.72%
                              34         2367     16.75%   9762.48%
                              36         4217     29.85%   9792.33%
                              38         4429     31.35%   9823.68%
                              40          985      6.97%   9830.65%
                              42          474      3.36%   9834.00%
                              44          974      6.89%   9840.90%
                              46          786      5.56%   9846.46%
                              48         1409      9.97%   9856.43%
                              50          950      6.72%   9863.16%
                              52          856      6.06%   9869.22%
                              54          520      3.68%   9872.90%
                              56          491      3.48%   9876.37%
                              58         2624     18.57%   9894.95%
                              60          840      5.95%   9900.89%
                              62          571      4.04%   9904.94%
                              64         2209     15.64%   9920.57%
                              66          358      2.53%   9923.11%
                              68          280      1.98%   9925.09%
                              70          600      4.25%   9929.34%
                              72          384      2.72%   9932.05%
                              74          230      1.63%   9933.68%
                              76          722      5.11%   9938.79%
                              78         1111      7.86%   9946.66%
                              80          640      4.53%   9951.19%
                              82          283      2.00%   9953.19%
                              84          672      4.76%   9957.95%
                              86         1168      8.27%   9966.21%
                              88          525      3.72%   9969.93%
                              90          953      6.75%   9976.68%
                              92          257      1.82%   9978.50%
                              94          316      2.24%   9980.73%
                              96          267      1.89%   9982.62%
                              98          148      1.05%   9983.67%
system.cpu0.IQ:residence:IprAccess.overflows         2307                      
system.cpu0.IQ:residence:IprAccess.max_value          341                      
system.cpu0.IQ:residence:IprAccess.end_dist

system.cpu0.IQ:residence:InstPrefetch.start_dist
system.cpu0.IQ:residence:InstPrefetch.samples            0                      
system.cpu0.IQ:residence:InstPrefetch.min_value            0                      
                               0            0                      
                               2            0                      
                               4            0                      
                               6            0                      
                               8            0                      
                              10            0                      
                              12            0                      
                              14            0                      
                              16            0                      
                              18            0                      
                              20            0                      
                              22            0                      
                              24            0                      
                              26            0                      
                              28            0                      
                              30            0                      
                              32            0                      
                              34            0                      
                              36            0                      
                              38            0                      
                              40            0                      
                              42            0                      
                              44            0                      
                              46            0                      
                              48            0                      
                              50            0                      
                              52            0                      
                              54            0                      
                              56            0                      
                              58            0                      
                              60            0                      
                              62            0                      
                              64            0                      
                              66            0                      
                              68            0                      
                              70            0                      
                              72            0                      
                              74            0                      
                              76            0                      
                              78            0                      
                              80            0                      
                              82            0                      
                              84            0                      
                              86            0                      
                              88            0                      
                              90            0                      
                              92            0                      
                              94            0                      
                              96            0                      
                              98            0                      
system.cpu0.IQ:residence:InstPrefetch.max_value            0                      
system.cpu0.IQ:residence:InstPrefetch.end_dist

system.cpu0.ISSUE:(null)_delay.start_dist 
system.cpu0.ISSUE:(null)_delay.samples           9532                      
system.cpu0.ISSUE:(null)_delay.min_value            1                      
                               0         8576   8997.06%   8997.06%
                               2          628    658.83%   9655.90%
                               4          161    168.90%   9824.80%
                               6           25     26.23%   9851.03%
                               8          124    130.09%   9981.12%
                              10            6      6.29%   9987.41%
                              12            4      4.20%   9991.61%
                              14            0      0.00%   9991.61%
                              16            3      3.15%   9994.75%
                              18            0      0.00%   9994.75%
                              20            4      4.20%   9998.95%
                              22            1      1.05%  10000.00%
                              24            0      0.00%  10000.00%
                              26            0      0.00%  10000.00%
                              28            0      0.00%  10000.00%
                              30            0      0.00%  10000.00%
                              32            0      0.00%  10000.00%
                              34            0      0.00%  10000.00%
                              36            0      0.00%  10000.00%
                              38            0      0.00%  10000.00%
                              40            0      0.00%  10000.00%
                              42            0      0.00%  10000.00%
                              44            0      0.00%  10000.00%
                              46            0      0.00%  10000.00%
                              48            0      0.00%  10000.00%
                              50            0      0.00%  10000.00%
                              52            0      0.00%  10000.00%
                              54            0      0.00%  10000.00%
                              56            0      0.00%  10000.00%
                              58            0      0.00%  10000.00%
                              60            0      0.00%  10000.00%
                              62            0      0.00%  10000.00%
                              64            0      0.00%  10000.00%
                              66            0      0.00%  10000.00%
                              68            0      0.00%  10000.00%
                              70            0      0.00%  10000.00%
                              72            0      0.00%  10000.00%
                              74            0      0.00%  10000.00%
                              76            0      0.00%  10000.00%
                              78            0      0.00%  10000.00%
                              80            0      0.00%  10000.00%
                              82            0      0.00%  10000.00%
                              84            0      0.00%  10000.00%
                              86            0      0.00%  10000.00%
                              88            0      0.00%  10000.00%
                              90            0      0.00%  10000.00%
                              92            0      0.00%  10000.00%
                              94            0      0.00%  10000.00%
                              96            0      0.00%  10000.00%
                              98            0      0.00%  10000.00%
system.cpu0.ISSUE:(null)_delay.max_value           23                      
system.cpu0.ISSUE:(null)_delay.end_dist

system.cpu0.ISSUE:IntAlu_delay.start_dist 
system.cpu0.ISSUE:IntAlu_delay.samples      123043982                      
system.cpu0.ISSUE:IntAlu_delay.min_value            0                      
                               0    110914137   9014.19%   9014.19%
                               2      5372103    436.60%   9450.79%
                               4      1818948    147.83%   9598.62%
                               6       789713     64.18%   9662.80%
                               8       470012     38.20%   9701.00%
                              10       334323     27.17%   9728.17%
                              12       508314     41.31%   9769.48%
                              14      1287565    104.64%   9874.12%
                              16       789210     64.14%   9938.26%
                              18       277509     22.55%   9960.81%
                              20       212225     17.25%   9978.06%
                              22       257326     20.91%   9998.98%
                              24        12597      1.02%  10000.00%
                              26            0      0.00%  10000.00%
                              28            0      0.00%  10000.00%
                              30            0      0.00%  10000.00%
                              32            0      0.00%  10000.00%
                              34            0      0.00%  10000.00%
                              36            0      0.00%  10000.00%
                              38            0      0.00%  10000.00%
                              40            0      0.00%  10000.00%
                              42            0      0.00%  10000.00%
                              44            0      0.00%  10000.00%
                              46            0      0.00%  10000.00%
                              48            0      0.00%  10000.00%
                              50            0      0.00%  10000.00%
                              52            0      0.00%  10000.00%
                              54            0      0.00%  10000.00%
                              56            0      0.00%  10000.00%
                              58            0      0.00%  10000.00%
                              60            0      0.00%  10000.00%
                              62            0      0.00%  10000.00%
                              64            0      0.00%  10000.00%
                              66            0      0.00%  10000.00%
                              68            0      0.00%  10000.00%
                              70            0      0.00%  10000.00%
                              72            0      0.00%  10000.00%
                              74            0      0.00%  10000.00%
                              76            0      0.00%  10000.00%
                              78            0      0.00%  10000.00%
                              80            0      0.00%  10000.00%
                              82            0      0.00%  10000.00%
                              84            0      0.00%  10000.00%
                              86            0      0.00%  10000.00%
                              88            0      0.00%  10000.00%
                              90            0      0.00%  10000.00%
                              92            0      0.00%  10000.00%
                              94            0      0.00%  10000.00%
                              96            0      0.00%  10000.00%
                              98            0      0.00%  10000.00%
system.cpu0.ISSUE:IntAlu_delay.max_value           24                      
system.cpu0.ISSUE:IntAlu_delay.end_dist

system.cpu0.ISSUE:IntMult_delay.start_dist
system.cpu0.ISSUE:IntMult_delay.samples        385744                      
system.cpu0.ISSUE:IntMult_delay.min_value            0                      
                               0       289486   7504.61%   7504.61%
                               2        48644   1261.04%   8765.66%
                               4        23365    605.71%   9371.37%
                               6         6728    174.42%   9545.79%
                               8         1483     38.45%   9584.23%
                              10         2304     59.73%   9643.96%
                              12         1473     38.19%   9682.15%
                              14         1673     43.37%   9725.52%
                              16          523     13.56%   9739.08%
                              18         3605     93.46%   9832.53%
                              20         3639     94.34%   9926.87%
                              22         2249     58.30%   9985.17%
                              24          572     14.83%  10000.00%
                              26            0      0.00%  10000.00%
                              28            0      0.00%  10000.00%
                              30            0      0.00%  10000.00%
                              32            0      0.00%  10000.00%
                              34            0      0.00%  10000.00%
                              36            0      0.00%  10000.00%
                              38            0      0.00%  10000.00%
                              40            0      0.00%  10000.00%
                              42            0      0.00%  10000.00%
                              44            0      0.00%  10000.00%
                              46            0      0.00%  10000.00%
                              48            0      0.00%  10000.00%
                              50            0      0.00%  10000.00%
                              52            0      0.00%  10000.00%
                              54            0      0.00%  10000.00%
                              56            0      0.00%  10000.00%
                              58            0      0.00%  10000.00%
                              60            0      0.00%  10000.00%
                              62            0      0.00%  10000.00%
                              64            0      0.00%  10000.00%
                              66            0      0.00%  10000.00%
                              68            0      0.00%  10000.00%
                              70            0      0.00%  10000.00%
                              72            0      0.00%  10000.00%
                              74            0      0.00%  10000.00%
                              76            0      0.00%  10000.00%
                              78            0      0.00%  10000.00%
                              80            0      0.00%  10000.00%
                              82            0      0.00%  10000.00%
                              84            0      0.00%  10000.00%
                              86            0      0.00%  10000.00%
                              88            0      0.00%  10000.00%
                              90            0      0.00%  10000.00%
                              92            0      0.00%  10000.00%
                              94            0      0.00%  10000.00%
                              96            0      0.00%  10000.00%
                              98            0      0.00%  10000.00%
system.cpu0.ISSUE:IntMult_delay.max_value           24                      
system.cpu0.ISSUE:IntMult_delay.end_dist

system.cpu0.ISSUE:IntDiv_delay.start_dist 
system.cpu0.ISSUE:IntDiv_delay.samples              0                      
system.cpu0.ISSUE:IntDiv_delay.min_value            0                      
                               0            0                      
                               2            0                      
                               4            0                      
                               6            0                      
                               8            0                      
                              10            0                      
                              12            0                      
                              14            0                      
                              16            0                      
                              18            0                      
                              20            0                      
                              22            0                      
                              24            0                      
                              26            0                      
                              28            0                      
                              30            0                      
                              32            0                      
                              34            0                      
                              36            0                      
                              38            0                      
                              40            0                      
                              42            0                      
                              44            0                      
                              46            0                      
                              48            0                      
                              50            0                      
                              52            0                      
                              54            0                      
                              56            0                      
                              58            0                      
                              60            0                      
                              62            0                      
                              64            0                      
                              66            0                      
                              68            0                      
                              70            0                      
                              72            0                      
                              74            0                      
                              76            0                      
                              78            0                      
                              80            0                      
                              82            0                      
                              84            0                      
                              86            0                      
                              88            0                      
                              90            0                      
                              92            0                      
                              94            0                      
                              96            0                      
                              98            0                      
system.cpu0.ISSUE:IntDiv_delay.max_value            0                      
system.cpu0.ISSUE:IntDiv_delay.end_dist

system.cpu0.ISSUE:FloatAdd_delay.start_dist
system.cpu0.ISSUE:FloatAdd_delay.samples        10062                      
system.cpu0.ISSUE:FloatAdd_delay.min_value            0                      
                               0         5152   5120.25%   5120.25%
                               2          212    210.69%   5330.95%
                               4            6      5.96%   5336.91%
                               6          556    552.57%   5889.49%
                               8           36     35.78%   5925.26%
[...]
system.cpu0.kern.ipl_used_31                 0.779446                      
system.cpu0.kern.mode_good_kernel                3778                      
system.cpu0.kern.mode_good_user                  3459                      
system.cpu0.kern.mode_good_idle                   177                      
system.cpu0.kern.mode_good_interrupt              142                      
system.cpu0.kern.mode_switch_kernel             15171                      
system.cpu0.kern.mode_switch_user                3459                      
system.cpu0.kern.mode_switch_idle                6391                      
system.cpu0.kern.mode_switch_interrupt            142                      
system.cpu0.kern.mode_switch_good            0.300282                      
system.cpu0.kern.mode_switch_good_kernel     0.249028                      
system.cpu0.kern.mode_switch_good_user              1                      
system.cpu0.kern.mode_switch_good_idle       0.027695                      
system.cpu0.kern.mode_switch_good_interrupt            1                      
system.cpu0.kern.mode_ticks_kernel           75187331      7.50%      7.50%
system.cpu0.kern.mode_ticks_user             17014538      1.70%      9.20%
system.cpu0.kern.mode_ticks_idle            908255710     90.64%     99.84%
system.cpu0.kern.mode_ticks_interrupt         1622347      0.16%    100.00%
system.cpu0.kern.swap_context                    5733                      
system.cpu0.kern.syscall                         1125                      
system.cpu0.kern.syscall_exit                      23      2.04%      2.04%
system.cpu0.kern.syscall_fork                      12      1.07%      3.11%
system.cpu0.kern.syscall_read                      91      8.09%     11.20%
system.cpu0.kern.syscall_write                     93      8.27%     19.47%
system.cpu0.kern.syscall_close                     74      6.58%     26.04%
system.cpu0.kern.syscall_chdir                      2      0.18%     26.22%
system.cpu0.kern.syscall_chmod                      1      0.09%     26.31%
system.cpu0.kern.syscall_obreak                    62      5.51%     31.82%
system.cpu0.kern.syscall_lseek                     12      1.07%     32.89%
system.cpu0.kern.syscall_getpid                    75      6.67%     39.56%
system.cpu0.kern.syscall_setuid                     4      0.36%     39.91%
system.cpu0.kern.syscall_getuid                    12      1.07%     40.98%
system.cpu0.kern.syscall_access                     4      0.36%     41.33%
system.cpu0.kern.syscall_kill                      27      2.40%     43.73%
system.cpu0.kern.syscall_dup                        4      0.36%     44.09%
system.cpu0.kern.syscall_pipe                       1      0.09%     44.18%
system.cpu0.kern.syscall_open                      99      8.80%     52.98%
system.cpu0.kern.syscall_getgid                    12      1.07%     54.04%
system.cpu0.kern.syscall_sigprocmask               87      7.73%     61.78%
system.cpu0.kern.syscall_ioctl                     23      2.04%     63.82%
system.cpu0.kern.syscall_readlink                   3      0.27%     64.09%
system.cpu0.kern.syscall_execve                     9      0.80%     64.89%
system.cpu0.kern.syscall_pre_F64_stat              36      3.20%     68.09%
system.cpu0.kern.syscall_pre_F64_lstat              1      0.09%     68.18%
system.cpu0.kern.syscall_mmap                      90      8.00%     76.18%
system.cpu0.kern.syscall_munmap                    32      2.84%     79.02%
system.cpu0.kern.syscall_mprotect                  38      3.38%     82.40%
system.cpu0.kern.syscall_gethostname                3      0.27%     82.67%
system.cpu0.kern.syscall_dup2                       3      0.27%     82.93%
system.cpu0.kern.syscall_pre_F64_fstat             36      3.20%     86.13%
system.cpu0.kern.syscall_fcntl                     18      1.60%     87.73%
system.cpu0.kern.syscall_poll                      43      3.82%     91.56%
system.cpu0.kern.syscall_socket                     4      0.36%     91.91%
system.cpu0.kern.syscall_connect                    4      0.36%     92.27%
system.cpu0.kern.syscall_sigreturn                 48      4.27%     96.53%
system.cpu0.kern.syscall_sigsuspend                27      2.40%     98.93%
system.cpu0.kern.syscall_setgid                     4      0.36%     99.29%
system.cpu0.kern.syscall_getrlimit                  3      0.27%     99.56%
system.cpu0.kern.syscall_setsid                     3      0.27%     99.82%
system.cpu0.kern.syscall_getsysinfo                 1      0.09%     99.91%
system.cpu0.kern.syscall_setsysinfo                 1      0.09%    100.00%
system.cpu0.numCycles                      1002081508                      
system.cpu0inst_class_dist.start_dist
                   All ops ready            0      0.00%           
                One op not ready            0      0.00%           
           None rdy, mult chains            0      0.00%           
           None rdy, one chained            0      0.00%           
        None rdy, all self-timed            0      0.00%           
system.cpu0inst_class_dist.end_dist
system.htbus.addr_idle_cycles              1001099663                      
system.htbus.addr_idle_fraction              0.999020                      
system.htbus.addr_queued                    44.884744                      
system.htbus.addr_queued_cycles               6059979                      
system.htbus.addr_requests                     135012                      
system.htbus.bus_blocked                            0                      
system.htbus.bus_blocked_cycles                     0                      
system.htbus.bus_blocked_fraction                   0                      
system.htbus.data_idle_cycles              1000997822                      
system.htbus.data_idle_fraction              0.998919                      
system.htbus.data_queued                            1                      
system.htbus.data_queued_cycles                  8824                      
system.htbus.data_requests                       8824                      
system.htbus.null_grants                            0                      
system.kern.fnCalls                                 0                      
system.l2.avg_blocked_cycles_no_mshrs    <err: div-0>                      
system.l2.avg_blocked_cycles_no_targets  <err: div-0>                      
system.l2.avg_refs                           2.416748                      
system.l2.blocked_no_mshrs                          0                      
system.l2.blocked_no_targets                        0                      
system.l2.blocked_cycles_no_mshrs                   0                      
system.l2.blocked_cycles_no_targets                 0                      
system.l2.cache_copies                              0                      
system.l2.demand_accesses                     3376165                      
system.l2.demand_avg_miss_latency           69.886859                      
system.l2.demand_avg_mshr_miss_latency      39.969865                      
system.l2.demand_hits                         2189966                      
system.l2.demand_miss_latency                82899722                      
system.l2.demand_miss_rate                   0.351345                      
system.l2.demand_misses                       1186199                      
system.l2.demand_mshr_hits                          0                      
system.l2.demand_mshr_miss_latency           47412214                      
system.l2.demand_mshr_miss_rate              0.351345                      
system.l2.demand_mshr_misses                  1186199                      
system.l2.fast_writes                               0                      
system.l2.mshr_cap_events                           0                      
system.l2.no_allocate_misses                        0                      
system.l2.overall_accesses                    4049686                      
system.l2.overall_avg_miss_latency          69.886859                      
system.l2.overall_avg_mshr_miss_latency     39.969865                      
system.l2.overall_avg_mshr_uncacheable_latency   273.008415                      
system.l2.overall_hits                        2863487                      
system.l2.overall_miss_latency               82899722                      
system.l2.overall_miss_rate                  0.292911                      
system.l2.overall_misses                      1186199                      
system.l2.overall_mshr_hits                         0                      
system.l2.overall_mshr_miss_latency          47412214                      
system.l2.overall_mshr_miss_rate             0.292911                      
system.l2.overall_mshr_misses                 1186199                      
system.l2.overall_mshr_uncacheable_latency      5742459                      
system.l2.overall_mshr_uncacheable_misses        21034                      
system.l2.prefetcher.num_hwpf_already_in_cache            0                      
system.l2.prefetcher.num_hwpf_already_in_mshr            0                      
system.l2.prefetcher.num_hwpf_already_in_prefetcher            0                      
system.l2.prefetcher.num_hwpf_evicted               0                      
system.l2.prefetcher.num_hwpf_identified            0                      
system.l2.prefetcher.num_hwpf_issued                0                      
system.l2.prefetcher.num_hwpf_removed_MSHR_hit            0                      
system.l2.prefetcher.num_hwpf_span_page             0                      
system.l2.prefetcher.num_hwpf_squashed_from_miss            0                      
system.l2.read_accesses                       3376165                      
system.l2.read_avg_miss_latency             69.886859                      
system.l2.read_avg_mshr_miss_latency        39.969865                      
system.l2.read_avg_mshr_uncacheable_latency   252.499116                      
system.l2.read_hits                           2189966                      
system.l2.read_miss_latency                  82899722                      
system.l2.read_miss_rate                     0.351345                      
system.l2.read_misses                         1186199                      
system.l2.read_mshr_miss_latency             47412214                      
system.l2.read_mshr_miss_rate                0.351345                      
system.l2.read_mshr_misses                    1186199                      
system.l2.read_mshr_uncacheable                  9619                      
system.l2.read_mshr_uncacheable_latency       2428789                      
system.l2.replacements                        1151989                      
system.l2.sampled_refs                        1184224                      
system.l2.soft_prefetch_mshr_full                   0                      
system.l2.tagsinuse                      32640.868185                      
system.l2.total_refs                          2861971                      
system.l2.warmup_cycle                        3662778                      
system.l2.write_avg_mshr_uncacheable_latency   290.290845                      
system.l2.write_mshr_uncacheable                11415                      
system.l2.write_mshr_uncacheable_latency      3313670                      
system.l2.writeback_accesses                   673521                      
system.l2.writeback_hits                       673521                      
system.l2.writebacks                           147811                      
system.l2bus.addr_idle_cycles               997943540                      
system.l2bus.addr_idle_fraction              0.995871                      
system.l2bus.addr_queued                     4.039201                      
system.l2bus.addr_queued_cycles              16710286                      
system.l2bus.addr_requests                    4137028                      
system.l2bus.bus_blocked                          210                      
system.l2bus.bus_blocked_cycles                107604                      
system.l2bus.bus_blocked_fraction            0.000107                      
system.l2bus.data_idle_cycles               998010711                      
system.l2bus.data_idle_fraction              0.995938                      
system.l2bus.data_queued                     1.019376                      
system.l2bus.data_queued_cycles               3451412                      
system.l2bus.data_requests                    3385810                      
system.l2bus.null_grants                        38141                      
system.membus.addr_idle_cycles             1000604107                      
system.membus.addr_idle_fraction             0.998526                      
system.membus.addr_queued                   26.987018                      
system.membus.addr_queued_cycles             39841448                      
system.membus.addr_requests                   1476319                      
system.membus.bus_blocked                           0                      
system.membus.bus_blocked_cycles                    0                      
system.membus.bus_blocked_fraction                  0                      
system.membus.data_idle_cycles              996503211                      
system.membus.data_idle_fraction             0.994433                      
system.membus.data_queued                    2.170889                      
system.membus.data_queued_cycles              2596483                      
system.membus.data_requests                   1196046                      
system.membus.null_grants                           0                      
system.pcibus.addr_idle_cycles             1000764180                      
system.pcibus.addr_idle_fraction             0.998685                      
system.pcibus.addr_queued                  551.043537                      
system.pcibus.addr_queued_cycles             74397490                      
system.pcibus.addr_requests                    135012                      
system.pcibus.bus_blocked                        3427                      
system.pcibus.bus_blocked_cycles               140504                      
system.pcibus.bus_blocked_fraction           0.000140                      
system.pcibus.data_idle_cycles              999863337                      
system.pcibus.data_idle_fraction             0.997786                      
system.pcibus.data_queued                    3.254873                      
system.pcibus.data_queued_cycles                28721                      
system.pcibus.data_requests                      8824                      
system.pcibus.null_grants                           0                      
system.ram.accesses                           1389054                      
system.ram.bytes_requested                          0                      
system.ram.bytes_sent                               0                      
system.ram.compressed_responses                     0                      
system.tsunami.etherdev0.coalescedRxDesc <err: div-0>                      
system.tsunami.etherdev0.coalescedRxIdle <err: div-0>                      
system.tsunami.etherdev0.coalescedRxOk   <err: div-0>                      
system.tsunami.etherdev0.coalescedRxOrn  <err: div-0>                      
system.tsunami.etherdev0.coalescedSwi        no value                      
system.tsunami.etherdev0.coalescedTotal  <err: div-0>                      
system.tsunami.etherdev0.coalescedTxDesc <err: div-0>                      
system.tsunami.etherdev0.coalescedTxIdle <err: div-0>                      
system.tsunami.etherdev0.coalescedTxOk   <err: div-0>                      
system.tsunami.etherdev0.descDMAReads               0                      
system.tsunami.etherdev0.descDMAWrites              0                      
system.tsunami.etherdev0.descDmaReadBytes            0                      
system.tsunami.etherdev0.descDmaWriteBytes            0                      
system.tsunami.etherdev0.dma.avg_large_transaction_latency <err: div-0>                      
system.tsunami.etherdev0.dma.avg_small_transaction_latency <err: div-0>                      
system.tsunami.etherdev0.dma.avg_transaction_latency <err: div-0>                      
system.tsunami.etherdev0.dma.bytes_transfered            0                      
system.tsunami.etherdev0.dma.large_transaction_latency            0                      
system.tsunami.etherdev0.dma.large_transactions            0                      
system.tsunami.etherdev0.dma.packets_sent            0                      
system.tsunami.etherdev0.dma.requests               0                      
system.tsunami.etherdev0.dma.round_trip_latency <err: div-0>                      
system.tsunami.etherdev0.dma.small_transaction_latency            0                      
system.tsunami.etherdev0.dma.small_transactions            0                      
system.tsunami.etherdev0.dma.total_cycle_latency            0                      
system.tsunami.etherdev0.dma.transaction_latency            0                      
system.tsunami.etherdev0.droppedPackets             0                      
system.tsunami.etherdev0.postedInterrupts            0                      
system.tsunami.etherdev0.postedRxDesc               0                      
system.tsunami.etherdev0.postedRxIdle               0                      
system.tsunami.etherdev0.postedRxOk                 0                      
system.tsunami.etherdev0.postedRxOrn                0                      
system.tsunami.etherdev0.postedSwi                  0                      
system.tsunami.etherdev0.postedTxDesc               0                      
system.tsunami.etherdev0.postedTxIdle               0                      
system.tsunami.etherdev0.postedTxOk                 0                      
system.tsunami.etherdev0.totalRxDesc                0                      
system.tsunami.etherdev0.totalRxIdle                0                      
system.tsunami.etherdev0.totalRxOk                  0                      
system.tsunami.etherdev0.totalRxOrn                 0                      
system.tsunami.etherdev0.totalSwi                   0                      
system.tsunami.etherdev0.totalTxDesc                0                      
system.tsunami.etherdev0.totalTxIdle                0                      
system.tsunami.etherdev0.totalTxOk                  0                      
system.tsunami.ide.dma.avg_large_transaction_latency  2823.017110                      
system.tsunami.ide.dma.avg_small_transaction_latency   281.962264                      
system.tsunami.ide.dma.avg_transaction_latency  2093.066396                      
system.tsunami.ide.dma.bytes_transfered       3522160                      
system.tsunami.ide.dma.large_transaction_latency      1484907                      
system.tsunami.ide.dma.large_transactions          526                      
system.tsunami.ide.dma.packets_sent             55044                      
system.tsunami.ide.dma.requests                   738                      
system.tsunami.ide.dma.round_trip_latency  1585.994550                      
system.tsunami.ide.dma.small_transaction_latency        59776                      
system.tsunami.ide.dma.small_transactions          212                      
system.tsunami.ide.dma.total_cycle_latency     87299484                      
system.tsunami.ide.dma.transaction_latency      1544683                      

---------- End Simulation Statistics   ----------
