system.cpu0.POWER.DYNAMIC:bpred_block_average     0.210367                      
system.cpu0.POWER.DYNAMIC:dcache_block_average     0.632886                      
system.cpu0.POWER.DYNAMIC:dtlb_block_average     0.007332                      
system.cpu0.POWER.DYNAMIC:fpalu_block_average     0.191670                      
system.cpu0.POWER.DYNAMIC:fpmap_block_average     0.021895                      
system.cpu0.POWER.DYNAMIC:fpmul_block_average     0.191664                      
system.cpu0.POWER.DYNAMIC:fpq_block_average     0.115357                      
system.cpu0.POWER.DYNAMIC:fpreg_block_average     0.073231                      
system.cpu0.POWER.DYNAMIC:icache_block_average     0.376819                      
system.cpu0.POWER.DYNAMIC:intalu_block_average     0.530195                      
system.cpu0.POWER.DYNAMIC:intmap_block_average     0.025031                      
system.cpu0.POWER.DYNAMIC:intq_block_average     0.237259                      
system.cpu0.POWER.DYNAMIC:intreg_block_average     0.209908                      
system.cpu0.POWER.DYNAMIC:itlb_block_average     0.004365                      
system.cpu0.POWER.DYNAMIC:lsq_block_average     0.085312                      
2.913291


---------- Begin Simulation Statistics ----------
host_inst_rate                                  12880                      
host_mem_usage                                 195668                      
host_seconds                                 11641.71                      
host_tick_rate                                 228160                      
sim_freq                                    450000000                      
sim_insts                                   149941692                      
sim_seconds                                  5.902620                      
sim_ticks                                  2656178896                      
system.cpu0.COM:IPB                          4.879825                      
system.cpu0.COM:IPC                          0.056450                      
system.cpu0.COM:branches                     30726860                      
system.cpu0.COM:bw_lim_avg               <err: div-0>                      
system.cpu0.COM:bw_lim_events                       0                      
system.cpu0.COM:bw_lim_rate                    0.0000                      
system.cpu0.COM:bw_lim_stdev_0_mean      <err: div-0>                      
system.cpu0.COM:bw_lim_stdev_0_stdev     <err: div-0>                      
**Ignore: system.cpu0.COM:bw_lim_stdev_0_TOT       0.0000                      
system.cpu0.COM:bw_limited                          0                      
system.cpu0.COM:committed_per_cycle.start_dist
system.cpu0.COM:committed_per_cycle.samples     49612395                      
system.cpu0.COM:committed_per_cycle.min_value            0                      
                               0       431145     86.90%           
                               1     10436906   2103.69%           
                               2      5938780   1197.04%           
                               3      3382261    681.74%           
                               4     29423303   5930.64%           
system.cpu0.COM:committed_per_cycle.max_value            4                      
system.cpu0.COM:committed_per_cycle.end_dist

system.cpu0.COM:count                       149941692                      
system.cpu0.COM:loads                        18233220                      
system.cpu0.COM:membars                        331617                      
system.cpu0.COM:refs                         29615449                      
system.cpu0.COM:stores                       11382229                      
system.cpu0.COM:swp_count                      212769                      
system.cpu0.DDQ:count                      9690100037                      
system.cpu0.DDQ:rate                                4                      
system.cpu0.DIS:chain_creation.start_dist
     Inst has no outstanding IDEPS            0      0.00%           
      IDEP chain reached max depth            0      0.00%           
                    Inst is a load            0      0.00%           
  Chain has multiple chained IDEPS            0      0.00%           
system.cpu0.DIS:chain_creation.end_dist
system.cpu0.DIS:chain_head_frac                     0                      
system.cpu0.DIS:chain_heads                         0                      
system.cpu0.DIS:chains_insuf                        0                      
system.cpu0.DIS:chains_insuf_rate                   0                      
system.cpu0.DIS:count                       172884407                      
system.cpu0.DIS:insufficient_chains                 0                      
system.cpu0.DIS:mod_n_stall_avg_free     <err: div-0>                      
system.cpu0.DIS:mod_n_stall_frac                    0                      
system.cpu0.DIS:mod_n_stall_free                    0                      
system.cpu0.DIS:mod_n_stalls                        0                      
system.cpu0.DIS:one_rdy_insts                       0                      
system.cpu0.DIS:one_rdy_ratio                no value                      
system.cpu0.DIS:op_count                    208725711                      
system.cpu0.DIS:op_rate                      0.078581                      
system.cpu0.DIS:rate                         0.065088                      
system.cpu0.DIS:second_choice_clust                 0                      
system.cpu0.DIS:second_choice_stall                 0                      
system.cpu0.DIS:serialize_stall_cycles       10382231                      
system.cpu0.DIS:serializing_insts              338203                      
system.cpu0.DIS:two_input_insts                     0                      
system.cpu0.DIS:two_input_ratio                     0                      
system.cpu0.FETCH:branch_count               49003128                      
system.cpu0.FETCH:branch_rate                0.018449                      
system.cpu0.FETCH:chance_pct                        1                      
system.cpu0.FETCH:chances                    68146514                      
system.cpu0.FETCH:choice                     68146514                      
system.cpu0.FETCH:count                     241637966                      
system.cpu0.FETCH:decisions                  68146514                      
system.cpu0.FETCH:idle_cycles              2588032383                      
system.cpu0.FETCH:idle_icache_blocked_cycles            0                      
system.cpu0.FETCH:idle_rate                     97.43                      
system.cpu0.FETCH:prio_changes                      0                      
system.cpu0.FETCH:rate                       0.090972                      
system.cpu0.FETCH:rate_dist.start_dist    
system.cpu0.FETCH:rate_dist.samples          68146514                      
system.cpu0.FETCH:rate_dist.min_value               0                      
                               0       177614     26.06%           
                               1      5545588    813.77%           
                               2      2902141    425.87%           
                               3      7796588   1144.09%           
                               4     51724583   7590.20%           
system.cpu0.FETCH:rate_dist.max_value               4                      
system.cpu0.FETCH:rate_dist.end_dist

system.cpu0.FETCH:rate_dist_0.start_dist  
system.cpu0.FETCH:rate_dist_0.samples        68146514                      
system.cpu0.FETCH:rate_dist_0.min_value             0                      
                               0       177614     26.06%           
                               1      5545588    813.77%           
                               2      2902141    425.87%           
                               3      7796588   1144.09%           
                               4     51724583   7590.20%           
system.cpu0.FETCH:rate_dist_0.max_value             4                      
system.cpu0.FETCH:rate_dist_0.end_dist

system.cpu0.IFQ:count                      3984750782                      
system.cpu0.IFQ:full_count                  113782087                      
system.cpu0.IFQ:full_rate                    4.283676                      
system.cpu0.IFQ:latency                     23.048642                      
system.cpu0.IFQ:occupancy                    1.500182                      
system.cpu0.IFQ:qfull_iq_occ               5585243594                      
system.cpu0.IFQ:qfull_iq_occ_dist_0.start_dist
system.cpu0.IFQ:qfull_iq_occ_dist_0.samples     95108016                      
system.cpu0.IFQ:qfull_iq_occ_dist_0.min_value            0                      
                               0      6104958    641.90%           
                              10       828008     87.06%           
                              20       724283     76.15%           
                              30       824095     86.65%           
                              40      1051482    110.56%           
                              50       961889    101.14%           
                              60     84613301   8896.55%           
system.cpu0.IFQ:qfull_iq_occ_dist_0.max_value           64                      
system.cpu0.IFQ:qfull_iq_occ_dist_0.end_dist

system.cpu0.IFQ:qfull_rob_occ              8691788651                      
system.cpu0.IFQ:qfull_rob_occ_dist_0.start_dist
system.cpu0.IFQ:qfull_rob_occ_dist_0.samples     95108016                      
system.cpu0.IFQ:qfull_rob_occ_dist_0.min_value            1                      
                               0      1408950    148.14%           
                              10      1834108    192.84%           
                              20      1251592    131.60%           
                              30       512380     53.87%           
                              40       311057     32.71%           
                              50       205779     21.64%           
                              60      5611965    590.06%           
                              70      1519037    159.72%           
                              80       672015     70.66%           
                              90     76725400   8067.19%           
                             100      1108285    116.53%           
                             110      1589776    167.15%           
                             120      2357672    247.89%           
                             130            0      0.00%           
system.cpu0.IFQ:qfull_rob_occ_dist_0.max_value          128                      
system.cpu0.IFQ:qfull_rob_occ_dist_0.end_dist

system.cpu0.IQ:cap_events                           0                      
system.cpu0.IQ:cap_inst                             0                      
system.cpu0.IQ:residence:(null).start_dist
system.cpu0.IQ:residence:(null).samples          9037                      
system.cpu0.IQ:residence:(null).min_value            1                      
                               0         8088   8949.87%   8949.87%
                               2          619    684.96%   9634.83%
                               4          151    167.09%   9801.93%
                               6           27     29.88%   9831.80%
                               8          122    135.00%   9966.80%
                              10            4      4.43%   9971.23%
                              12            6      6.64%   9977.87%
                              14            0      0.00%   9977.87%
                              16           13     14.39%   9992.25%
                              18            4      4.43%   9996.68%
                              20            3      3.32%  10000.00%
                              22            0      0.00%  10000.00%
                              24            0      0.00%  10000.00%
                              26            0      0.00%  10000.00%
                              28            0      0.00%  10000.00%
                              30            0      0.00%  10000.00%
                              32            0      0.00%  10000.00%
                              34            0      0.00%  10000.00%
                              36            0      0.00%  10000.00%
                              38            0      0.00%  10000.00%
                              40            0      0.00%  10000.00%
                              42            0      0.00%  10000.00%
                              44            0      0.00%  10000.00%
                              46            0      0.00%  10000.00%
                              48            0      0.00%  10000.00%
                              50            0      0.00%  10000.00%
                              52            0      0.00%  10000.00%
                              54            0      0.00%  10000.00%
                              56            0      0.00%  10000.00%
                              58            0      0.00%  10000.00%
                              60            0      0.00%  10000.00%
                              62            0      0.00%  10000.00%
                              64            0      0.00%  10000.00%
                              66            0      0.00%  10000.00%
                              68            0      0.00%  10000.00%
                              70            0      0.00%  10000.00%
                              72            0      0.00%  10000.00%
                              74            0      0.00%  10000.00%
                              76            0      0.00%  10000.00%
                              78            0      0.00%  10000.00%
                              80            0      0.00%  10000.00%
                              82            0      0.00%  10000.00%
                              84            0      0.00%  10000.00%
                              86            0      0.00%  10000.00%
                              88            0      0.00%  10000.00%
                              90            0      0.00%  10000.00%
                              92            0      0.00%  10000.00%
                              94            0      0.00%  10000.00%
                              96            0      0.00%  10000.00%
                              98            0      0.00%  10000.00%
system.cpu0.IQ:residence:(null).max_value           21                      
system.cpu0.IQ:residence:(null).end_dist

system.cpu0.IQ:residence:IntAlu.start_dist
system.cpu0.IQ:residence:IntAlu.samples     125725810                      
system.cpu0.IQ:residence:IntAlu.min_value            1                      
                               0     34138254   2715.29%   2715.29%
                               2     34991778   2783.18%   5498.48%
                               4      6818223    542.31%   6040.78%
                               6      5376534    427.64%   6468.42%
                               8      4213565    335.14%   6803.56%
                              10      3021036    240.29%   7043.85%
                              12      2853152    226.93%   7270.79%
                              14      4497713    357.74%   7628.53%
                              16      5075639    403.71%   8032.23%
                              18      2881263    229.17%   8261.40%
                              20      2783602    221.40%   8482.81%
                              22      3135231    249.37%   8732.18%
                              24      1834823    145.94%   8878.11%
                              26      1035114     82.33%   8960.45%
                              28       683042     54.33%   9014.77%
                              30       639288     50.85%   9065.62%
                              32       571572     45.46%   9111.08%
                              34       490422     39.01%   9150.09%
                              36       587378     46.72%   9196.81%
                              38       538488     42.83%   9239.64%
                              40       450453     35.83%   9275.47%
                              42       339491     27.00%   9302.47%
                              44       357754     28.46%   9330.93%
                              46       314962     25.05%   9355.98%
                              48       260421     20.71%   9376.69%
                              50       254230     20.22%   9396.91%
                              52       245749     19.55%   9416.46%
                              54       258136     20.53%   9436.99%
                              56       112220      8.93%   9445.92%
                              58       130805     10.40%   9456.32%
                              60       118081      9.39%   9465.71%
                              62       204189     16.24%   9481.95%
                              64       112921      8.98%   9490.93%
                              66        91660      7.29%   9498.22%
                              68       103936      8.27%   9506.49%
                              70        74456      5.92%   9512.41%
                              72        80833      6.43%   9518.84%
                              74        66694      5.30%   9524.15%
                              76        93706      7.45%   9531.60%
                              78       105130      8.36%   9539.96%
                              80        54562      4.34%   9544.30%
                              82        51491      4.10%   9548.40%
                              84        52187      4.15%   9552.55%
                              86        58615      4.66%   9557.21%
                              88        67204      5.35%   9562.56%
                              90        75348      5.99%   9568.55%
                              92        40807      3.25%   9571.79%
                              94        44041      3.50%   9575.30%
                              96        40719      3.24%   9578.54%
                              98        65256      5.19%   9583.73%
system.cpu0.IQ:residence:IntAlu.overflows      5233636                      
system.cpu0.IQ:residence:IntAlu.max_value        20972                      
system.cpu0.IQ:residence:IntAlu.end_dist

system.cpu0.IQ:residence:IntMult.start_dist
system.cpu0.IQ:residence:IntMult.samples       388789                      
system.cpu0.IQ:residence:IntMult.min_value            1                      
                               0         4672    120.17%    120.17%
                               2         3286     84.52%    204.69%
                               4         9307    239.38%    444.07%
                               6         6803    174.98%    619.05%
                               8         8107    208.52%    827.57%
                              10         6517    167.62%    995.19%
                              12         6492    166.98%   1162.17%
                              14        10528    270.79%   1432.96%
                              16        10520    270.58%   1703.55%
                              18        19522    502.12%   2205.67%
                              20        95009   2443.72%   4649.39%
                              22       120242   3092.73%   7742.12%
                              24        47787   1229.12%   8971.24%
                              26         3400     87.45%   9058.69%
                              28          391     10.06%   9068.75%
                              30         3259     83.82%   9152.57%
                              32         2911     74.87%   9227.45%
                              34         2894     74.44%   9301.88%
                              36         3353     86.24%   9388.13%
                              38         2452     63.07%   9451.19%
                              40         9765    251.16%   9702.36%
                              42         1207     31.05%   9733.40%
                              44          497     12.78%   9746.19%
                              46          174      4.48%   9750.66%
                              48          357      9.18%   9759.84%
                              50          234      6.02%   9765.86%
                              52          385      9.90%   9775.77%
                              54          384      9.88%   9785.64%
                              56          536     13.79%   9799.43%
                              58          115      2.96%   9802.39%
                              60           29      0.75%   9803.13%
                              62           58      1.49%   9804.62%
                              64           47      1.21%   9805.83%
                              66           68      1.75%   9807.58%
                              68          102      2.62%   9810.21%
                              70          492     12.65%   9822.86%
                              72          330      8.49%   9831.35%
                              74          456     11.73%   9843.08%
                              76          114      2.93%   9846.01%
                              78           94      2.42%   9848.43%
                              80           86      2.21%   9850.64%
                              82           72      1.85%   9852.49%
                              84           49      1.26%   9853.75%
                              86           10      0.26%   9854.01%
                              88           55      1.41%   9855.42%
                              90           21      0.54%   9855.96%
                              92            6      0.15%   9856.12%
                              94           17      0.44%   9856.55%
                              96            6      0.15%   9856.71%
                              98            5      0.13%   9856.84%
system.cpu0.IQ:residence:IntMult.overflows         5566                      
system.cpu0.IQ:residence:IntMult.max_value          780                      
system.cpu0.IQ:residence:IntMult.end_dist

system.cpu0.IQ:residence:IntDiv.start_dist
system.cpu0.IQ:residence:IntDiv.samples             0                      
system.cpu0.IQ:residence:IntDiv.min_value            0                      
                               0            0                      
                               2            0                      
                               4            0                      
                               6            0                      
                               8            0                      
                              10            0                      
                              12            0                      
                              14            0                      
                              16            0                      
                              18            0                      
                              20            0                      
                              22            0                      
                              24            0                      
                              26            0                      
                              28            0                      
                              30            0                      
                              32            0                      
                              34            0                      
                              36            0                      
                              38            0                      
                              40            0                      
                              42            0                      
                              44            0                      
                              46            0                      
                              48            0                      
                              50            0                      
                              52            0                      
                              54            0                      
                              56            0                      
                              58            0                      
                              60            0                      
                              62            0                      
                              64            0                      
                              66            0                      
                              68            0                      
                              70            0                      
                              72            0                      
                              74            0                      
                              76            0                      
                              78            0                      
                              80            0                      
                              82            0                      
                              84            0                      
                              86            0                      
                              88            0                      
                              90            0                      
                              92            0                      
                              94            0                      
                              96            0                      
                              98            0                      
system.cpu0.IQ:residence:IntDiv.max_value            0                      
system.cpu0.IQ:residence:IntDiv.end_dist

system.cpu0.IQ:residence:FloatAdd.start_dist
system.cpu0.IQ:residence:FloatAdd.samples         9690                      
system.cpu0.IQ:residence:FloatAdd.min_value            1                      
                               0           99    102.17%    102.17%
                               2          165    170.28%    272.45%
                               4          139    143.45%    415.89%
                               6         2430   2507.74%   2923.63%
                               8           26     26.83%   2950.46%
                              10          378    390.09%   3340.56%
                              12          843    869.97%   4210.53%
                              14          388    400.41%   4610.94%
                              16         2445   2523.22%   7134.16%
                              18            3      3.10%   7137.25%
                              20            0      0.00%   7137.25%
                              22            0      0.00%   7137.25%
                              24            0      0.00%   7137.25%
                              26            0      0.00%   7137.25%
                              28            2      2.06%   7139.32%
                              30            0      0.00%   7139.32%
                              32            3      3.10%   7142.41%
                              34           36     37.15%   7179.57%
                              36         1863   1922.60%   9102.17%
                              38          863    890.61%   9992.78%
                              40            2      2.06%   9994.84%
                              42            1      1.03%   9995.87%
                              44            0      0.00%   9995.87%
                              46            0      0.00%   9995.87%
                              48            0      0.00%   9995.87%
                              50            0      0.00%   9995.87%
                              52            0      0.00%   9995.87%
                              54            0      0.00%   9995.87%
                              56            0      0.00%   9995.87%
                              58            0      0.00%   9995.87%
                              60            0      0.00%   9995.87%
                              62            0      0.00%   9995.87%
                              64            0      0.00%   9995.87%
                              66            0      0.00%   9995.87%
                              68            0      0.00%   9995.87%
                              70            0      0.00%   9995.87%
                              72            0      0.00%   9995.87%
                              74            0      0.00%   9995.87%
                              76            0      0.00%   9995.87%
                              78            0      0.00%   9995.87%
                              80            0      0.00%   9995.87%
                              82            1      1.03%   9996.90%
                              84            0      0.00%   9996.90%
                              86            3      3.10%  10000.00%
                              88            0      0.00%  10000.00%
                              90            0      0.00%  10000.00%
                              92            0      0.00%  10000.00%
                              94            0      0.00%  10000.00%
                              96            0      0.00%  10000.00%
                              98            0      0.00%  10000.00%
system.cpu0.IQ:residence:FloatAdd.max_value           86                      
system.cpu0.IQ:residence:FloatAdd.end_dist

system.cpu0.IQ:residence:FloatCmp.start_dist
system.cpu0.IQ:residence:FloatCmp.samples            0                      
system.cpu0.IQ:residence:FloatCmp.min_value            0                      
                               0            0                      
                               2            0                      
                               4            0                      
                               6            0                      
                               8            0                      
                              10            0                      
                              12            0                      
                              14            0                      
                              16            0                      
                              18            0                      
                              20            0                      
                              22            0                      
                              24            0                      
                              26            0                      
                              28            0                      
                              30            0                      
                              32            0                      
                              34            0                      
                              36            0                      
                              38            0                      
                              40            0                      
                              42            0                      
                              44            0                      
                              46            0                      
                              48            0                      
                              50            0                      
                              52            0                      
                              54            0                      
                              56            0                      
                              58            0                      
                              60            0                      
                              62            0                      
                              64            0                      
                              66            0                      
                              68            0                      
                              70            0                      
                              72            0                      
                              74            0                      
                              76            0                      
                              78            0                      
                              80            0                      
                              82            0                      
                              84            0                      
                              86            0                      
                              88            0                      
                              90            0                      
                              92            0                      
                              94            0                      
                              96            0                      
                              98            0                      
system.cpu0.IQ:residence:FloatCmp.max_value            0                      
system.cpu0.IQ:residence:FloatCmp.end_dist

system.cpu0.IQ:residence:FloatCvt.start_dist
system.cpu0.IQ:residence:FloatCvt.samples            0                      
system.cpu0.IQ:residence:FloatCvt.min_value            0                      
                               0            0                      
                               2            0                      
                               4            0                      
                               6            0                      
                               8            0                      
                              10            0                      
                              12            0                      
                              14            0                      
                              16            0                      
                              18            0                      
                              20            0                      
                              22            0                      
                              24            0                      
                              26            0                      
                              28            0                      
                              30            0                      
                              32            0                      
                              34            0                      
                              36            0                      
                              38            0                      
                              40            0                      
                              42            0                      
                              44            0                      
                              46            0                      
                              48            0                      
                              50            0                      
                              52            0                      
                              54            0                      
                              56            0                      
                              58            0                      
                              60            0                      
                              62            0                      
                              64            0                      
                              66            0                      
                              68            0                      
                              70            0                      
                              72            0                      
                              74            0                      
                              76            0                      
                              78            0                      
                              80            0                      
                              82            0                      
                              84            0                      
                              86            0                      
                              88            0                      
                              90            0                      
                              92            0                      
                              94            0                      
                              96            0                      
                              98            0                      
system.cpu0.IQ:residence:FloatCvt.max_value            0                      
system.cpu0.IQ:residence:FloatCvt.end_dist

system.cpu0.IQ:residence:FloatMult.start_dist
system.cpu0.IQ:residence:FloatMult.samples            2                      
system.cpu0.IQ:residence:FloatMult.min_value           80                      
                               0            0      0.00%      0.00%
                               2            0      0.00%      0.00%
                               4            0      0.00%      0.00%
                               6            0      0.00%      0.00%
                               8            0      0.00%      0.00%
                              10            0      0.00%      0.00%
                              12            0      0.00%      0.00%
                              14            0      0.00%      0.00%
                              16            0      0.00%      0.00%
                              18            0      0.00%      0.00%
                              20            0      0.00%      0.00%
                              22            0      0.00%      0.00%
                              24            0      0.00%      0.00%
                              26            0      0.00%      0.00%
                              28            0      0.00%      0.00%
                              30            0      0.00%      0.00%
                              32            0      0.00%      0.00%
                              34            0      0.00%      0.00%
                              36            0      0.00%      0.00%
                              38            0      0.00%      0.00%
                              40            0      0.00%      0.00%
                              42            0      0.00%      0.00%
                              44            0      0.00%      0.00%
                              46            0      0.00%      0.00%
                              48            0      0.00%      0.00%
                              50            0      0.00%      0.00%
                              52            0      0.00%      0.00%
                              54            0      0.00%      0.00%
                              56            0      0.00%      0.00%
                              58            0      0.00%      0.00%
                              60            0      0.00%      0.00%
                              62            0      0.00%      0.00%
                              64            0      0.00%      0.00%
                              66            0      0.00%      0.00%
                              68            0      0.00%      0.00%
                              70            0      0.00%      0.00%
                              72            0      0.00%      0.00%
                              74            0      0.00%      0.00%
                              76            0      0.00%      0.00%
                              78            0      0.00%      0.00%
                              80            1   5000.00%   5000.00%
                              82            0      0.00%   5000.00%
                              84            0      0.00%   5000.00%
                              86            0      0.00%   5000.00%
                              88            0      0.00%   5000.00%
                              90            0      0.00%   5000.00%
                              92            0      0.00%   5000.00%
                              94            0      0.00%   5000.00%
                              96            0      0.00%   5000.00%
                              98            0      0.00%   5000.00%
system.cpu0.IQ:residence:FloatMult.overflows            1                      
system.cpu0.IQ:residence:FloatMult.max_value          103                      
system.cpu0.IQ:residence:FloatMult.end_dist

system.cpu0.IQ:residence:FloatDiv.start_dist
system.cpu0.IQ:residence:FloatDiv.samples           60                      
system.cpu0.IQ:residence:FloatDiv.min_value            6                      
                               0            0      0.00%      0.00%
                               2            0      0.00%      0.00%
                               4            0      0.00%      0.00%
                               6           59   9833.33%   9833.33%
                               8            0      0.00%   9833.33%
                              10            0      0.00%   9833.33%
                              12            0      0.00%   9833.33%
                              14            0      0.00%   9833.33%
                              16            0      0.00%   9833.33%
                              18            0      0.00%   9833.33%
                              20            0      0.00%   9833.33%
                              22            0      0.00%   9833.33%
                              24            0      0.00%   9833.33%
                              26            0      0.00%   9833.33%
                              28            0      0.00%   9833.33%
                              30            1    166.67%  10000.00%
                              32            0      0.00%  10000.00%
                              34            0      0.00%  10000.00%
                              36            0      0.00%  10000.00%
                              38            0      0.00%  10000.00%
                              40            0      0.00%  10000.00%
                              42            0      0.00%  10000.00%
                              44            0      0.00%  10000.00%
                              46            0      0.00%  10000.00%
                              48            0      0.00%  10000.00%
                              50            0      0.00%  10000.00%
                              52            0      0.00%  10000.00%
                              54            0      0.00%  10000.00%
                              56            0      0.00%  10000.00%
                              58            0      0.00%  10000.00%
                              60            0      0.00%  10000.00%
                              62            0      0.00%  10000.00%
                              64            0      0.00%  10000.00%
                              66            0      0.00%  10000.00%
                              68            0      0.00%  10000.00%
                              70            0      0.00%  10000.00%
                              72            0      0.00%  10000.00%
                              74            0      0.00%  10000.00%
                              76            0      0.00%  10000.00%
                              78            0      0.00%  10000.00%
                              80            0      0.00%  10000.00%
                              82            0      0.00%  10000.00%
                              84            0      0.00%  10000.00%
                              86            0      0.00%  10000.00%
                              88            0      0.00%  10000.00%
                              90            0      0.00%  10000.00%
                              92            0      0.00%  10000.00%
                              94            0      0.00%  10000.00%
                              96            0      0.00%  10000.00%
                              98            0      0.00%  10000.00%
system.cpu0.IQ:residence:FloatDiv.max_value           30                      
system.cpu0.IQ:residence:FloatDiv.end_dist

system.cpu0.IQ:residence:FloatSqrt.start_dist
system.cpu0.IQ:residence:FloatSqrt.samples            0                      
system.cpu0.IQ:residence:FloatSqrt.min_value            0                      
                               0            0                      
                               2            0                      
                               4            0                      
                               6            0                      
                               8            0                      
                              10            0                      
                              12            0                      
                              14            0                      
                              16            0                      
                              18            0                      
                              20            0                      
                              22            0                      
                              24            0                      
                              26            0                      
                              28            0                      
                              30            0                      
                              32            0                      
                              34            0                      
                              36            0                      
                              38            0                      
                              40            0                      
                              42            0                      
                              44            0                      
                              46            0                      
                              48            0                      
                              50            0                      
                              52            0                      
                              54            0                      
                              56            0                      
                              58            0                      
                              60            0                      
                              62            0                      
                              64            0                      
                              66            0                      
                              68            0                      
                              70            0                      
                              72            0                      
                              74            0                      
                              76            0                      
                              78            0                      
                              80            0                      
                              82            0                      
                              84            0                      
                              86            0                      
                              88            0                      
                              90            0                      
                              92            0                      
                              94            0                      
                              96            0                      
                              98            0                      
system.cpu0.IQ:residence:FloatSqrt.max_value            0                      
system.cpu0.IQ:residence:FloatSqrt.end_dist

system.cpu0.IQ:residence:MemRead.start_dist
system.cpu0.IQ:residence:MemRead.samples     40268800                      
system.cpu0.IQ:residence:MemRead.min_value            1                      
                               0      4204120   1044.01%   1044.01%
                               2      6521677   1619.54%   2663.55%
                               4      3390733    842.02%   3505.58%
                               6      2810260    697.88%   4203.45%
                               8      2080864    516.74%   4720.19%
                              10      1787459    443.88%   5164.08%
                              12      1405885    349.13%   5513.20%
                              14      1265181    314.18%   5827.38%
                              16      1369957    340.20%   6167.59%
                              18      1839488    456.80%   6624.39%
                              20      2597849    645.13%   7269.52%
                              22      2864835    711.43%   7980.95%
                              24       928633    230.61%   8211.55%
                              26       247020     61.34%   8272.90%
                              28       228084     56.64%   8329.54%
                              30       193400     48.03%   8377.56%
                              32       161754     40.17%   8417.73%
                              34       223808     55.58%   8473.31%
                              36       251609     62.48%   8535.79%
                              38       249770     62.03%   8597.82%
                              40       173298     43.04%   8640.85%
                              42       188115     46.71%   8687.57%
                              44       134645     33.44%   8721.01%
                              46       173159     43.00%   8764.01%
                              48        82346     20.45%   8784.46%
                              50       120577     29.94%   8814.40%
                              52        73700     18.30%   8832.70%
                              54        88035     21.86%   8854.56%
                              56        48247     11.98%   8866.54%
                              58        49386     12.26%   8878.81%
                              60        74047     18.39%   8897.20%
                              62        65388     16.24%   8913.43%
                              64       123464     30.66%   8944.09%
                              66        31277      7.77%   8951.86%
                              68        57780     14.35%   8966.21%
                              70        39881      9.90%   8976.11%
                              72        40694     10.11%   8986.22%
                              74        33471      8.31%   8994.53%
                              76        26699      6.63%   9001.16%
                              78        66284     16.46%   9017.62%
                              80        40313     10.01%   9027.63%
                              82        26860      6.67%   9034.30%
                              84        38516      9.56%   9043.87%
                              86        48536     12.05%   9055.92%
                              88        21894      5.44%   9061.36%
                              90        23937      5.94%   9067.30%
                              92        23364      5.80%   9073.10%
                              94        31432      7.81%   9080.91%
                              96        23555      5.85%   9086.76%
                              98        10964      2.72%   9089.48%
system.cpu0.IQ:residence:MemRead.overflows      3666550                      
system.cpu0.IQ:residence:MemRead.max_value        20965                      
system.cpu0.IQ:residence:MemRead.end_dist

system.cpu0.IQ:residence:MemWrite.start_dist
system.cpu0.IQ:residence:MemWrite.samples     24018144                      
system.cpu0.IQ:residence:MemWrite.min_value            1                      
                               0      2144209    892.75%    892.75%
                               2      4261256   1774.18%   2666.93%
                               4      2560218   1065.95%   3732.88%
                               6      2064857    859.71%   4592.59%
                               8      1571459    654.28%   5246.87%
                              10      1005264    418.54%   5665.41%
                              12       819418    341.17%   6006.58%
                              14       751021    312.69%   6319.27%
                              16       835262    347.76%   6667.03%
                              18      1072381    446.49%   7113.52%
                              20      1402966    584.13%   7697.64%
                              22      1722009    716.96%   8414.61%
                              24       892373    371.54%   8786.15%
                              26       241085    100.38%   8886.52%
                              28       193942     80.75%   8967.27%
                              30       139317     58.00%   9025.28%
                              32       191523     79.74%   9105.02%
                              34       190717     79.41%   9184.42%
                              36       223438     93.03%   9277.45%
                              38       172354     71.76%   9349.21%
                              40       166838     69.46%   9418.67%
                              42       120561     50.20%   9468.87%
                              44       107513     44.76%   9513.63%
                              46        73357     30.54%   9544.18%
                              48        57820     24.07%   9568.25%
                              50       153939     64.09%   9632.34%
                              52        69005     28.73%   9661.07%
                              54        33098     13.78%   9674.85%
                              56        33078     13.77%   9688.62%
                              58        21339      8.88%   9697.51%
                              60        46347     19.30%   9716.81%
                              62        67017     27.90%   9744.71%
                              64       127599     53.13%   9797.83%
                              66        18101      7.54%   9805.37%
                              68        16104      6.70%   9812.08%
                              70        18550      7.72%   9819.80%
                              72        22444      9.34%   9829.14%
                              74        18449      7.68%   9836.83%
                              76        33501     13.95%   9850.77%
                              78        41238     17.17%   9867.94%
                              80        36337     15.13%   9883.07%
                              82        17679      7.36%   9890.43%
                              84        11903      4.96%   9895.39%
                              86         8206      3.42%   9898.80%
                              88        10983      4.57%   9903.38%
                              90        10762      4.48%   9907.86%
                              92        16760      6.98%   9914.84%
                              94         7209      3.00%   9917.84%
                              96         5657      2.36%   9920.19%
                              98         4796      2.00%   9922.19%
system.cpu0.IQ:residence:MemWrite.overflows       186885                      
system.cpu0.IQ:residence:MemWrite.max_value        20971                      
system.cpu0.IQ:residence:MemWrite.end_dist

system.cpu0.IQ:residence:IprAccess.start_dist
system.cpu0.IQ:residence:IprAccess.samples      1605754                      
system.cpu0.IQ:residence:IprAccess.min_value            1                      
                               0       329943   2054.75%   2054.75%
                               2       280495   1746.81%   3801.57%
                               4        92716    577.40%   4378.96%
                               6       307539   1915.23%   6294.20%
                               8       257407   1603.03%   7897.22%
                              10        72796    453.34%   8350.57%
                              12        55494    345.59%   8696.16%
                              14        36444    226.96%   8923.12%
                              16        42665    265.70%   9188.82%
                              18        26530    165.22%   9354.04%
                              20        21059    131.15%   9485.19%
                              22        19268    119.99%   9605.18%
                              24        11069     68.93%   9674.12%
                              26         4034     25.12%   9699.24%
                              28         8995     56.02%   9755.26%
                              30         2838     17.67%   9772.93%
                              32         1935     12.05%   9784.98%
                              34         2352     14.65%   9799.63%
                              36         3892     24.24%   9823.86%
                              38         4133     25.74%   9849.60%
                              40          959      5.97%   9855.58%
                              42          462      2.88%   9858.45%
                              44          961      5.98%   9864.44%
                              46          750      4.67%   9869.11%
                              48         1379      8.59%   9877.70%
                              50          874      5.44%   9883.14%
                              52          790      4.92%   9888.06%
                              54          480      2.99%   9891.05%
                              56          445      2.77%   9893.82%
                              58         2454     15.28%   9909.10%
                              60          909      5.66%   9914.76%
                              62          578      3.60%   9918.36%
                              64         2200     13.70%   9932.06%
                              66          338      2.10%   9934.17%
                              68          259      1.61%   9935.78%
                              70          590      3.67%   9939.46%
                              72          363      2.26%   9941.72%
                              74          223      1.39%   9943.10%
                              76          704      4.38%   9947.49%
                              78         1095      6.82%   9954.31%
                              80          622      3.87%   9958.18%
                              82          275      1.71%   9959.89%
                              84          661      4.12%   9964.01%
                              86         1148      7.15%   9971.16%
                              88          512      3.19%   9974.35%
                              90          909      5.66%   9980.01%
                              92          253      1.58%   9981.58%
                              94          348      2.17%   9983.75%
                              96          261      1.63%   9985.38%
                              98          150      0.93%   9986.31%
system.cpu0.IQ:residence:IprAccess.overflows         2198                      
system.cpu0.IQ:residence:IprAccess.max_value          341                      
system.cpu0.IQ:residence:IprAccess.end_dist

system.cpu0.IQ:residence:InstPrefetch.start_dist
system.cpu0.IQ:residence:InstPrefetch.samples            0                      
system.cpu0.IQ:residence:InstPrefetch.min_value            0                      
                               0            0                      
                               2            0                      
                               4            0                      
                               6            0                      
                               8            0                      
                              10            0                      
                              12            0                      
                              14            0                      
                              16            0                      
                              18            0                      
                              20            0                      
                              22            0                      
                              24            0                      
                              26            0                      
                              28            0                      
                              30            0                      
                              32            0                      
                              34            0                      
                              36            0                      
                              38            0                      
                              40            0                      
                              42            0                      
                              44            0                      
                              46            0                      
                              48            0                      
                              50            0                      
                              52            0                      
                              54            0                      
                              56            0                      
                              58            0                      
                              60            0                      
                              62            0                      
                              64            0                      
                              66            0                      
                              68            0                      
                              70            0                      
                              72            0                      
                              74            0                      
                              76            0                      
                              78            0                      
                              80            0                      
                              82            0                      
                              84            0                      
                              86            0                      
                              88            0                      
                              90            0                      
                              92            0                      
                              94            0                      
                              96            0                      
                              98            0                      
system.cpu0.IQ:residence:InstPrefetch.max_value            0                      
system.cpu0.IQ:residence:InstPrefetch.end_dist

system.cpu0.ISSUE:(null)_delay.start_dist 
system.cpu0.ISSUE:(null)_delay.samples           9037                      
system.cpu0.ISSUE:(null)_delay.min_value            1                      
                               0         8088   8949.87%   8949.87%
                               2          619    684.96%   9634.83%
                               4          151    167.09%   9801.93%
                               6           27     29.88%   9831.80%
                               8          122    135.00%   9966.80%
                              10            4      4.43%   9971.23%
                              12            6      6.64%   9977.87%
                              14            0      0.00%   9977.87%
                              16           13     14.39%   9992.25%
                              18            4      4.43%   9996.68%
                              20            3      3.32%  10000.00%
                              22            0      0.00%  10000.00%
                              24            0      0.00%  10000.00%
                              26            0      0.00%  10000.00%
                              28            0      0.00%  10000.00%
                              30            0      0.00%  10000.00%
                              32            0      0.00%  10000.00%
                              34            0      0.00%  10000.00%
                              36            0      0.00%  10000.00%
                              38            0      0.00%  10000.00%
                              40            0      0.00%  10000.00%
                              42            0      0.00%  10000.00%
                              44            0      0.00%  10000.00%
                              46            0      0.00%  10000.00%
                              48            0      0.00%  10000.00%
                              50            0      0.00%  10000.00%
                              52            0      0.00%  10000.00%
                              54            0      0.00%  10000.00%
                              56            0      0.00%  10000.00%
                              58            0      0.00%  10000.00%
                              60            0      0.00%  10000.00%
                              62            0      0.00%  10000.00%
                              64            0      0.00%  10000.00%
                              66            0      0.00%  10000.00%
                              68            0      0.00%  10000.00%
                              70            0      0.00%  10000.00%
                              72            0      0.00%  10000.00%
                              74            0      0.00%  10000.00%
                              76            0      0.00%  10000.00%
                              78            0      0.00%  10000.00%
                              80            0      0.00%  10000.00%
                              82            0      0.00%  10000.00%
                              84            0      0.00%  10000.00%
                              86            0      0.00%  10000.00%
                              88            0      0.00%  10000.00%
                              90            0      0.00%  10000.00%
                              92            0      0.00%  10000.00%
                              94            0      0.00%  10000.00%
                              96            0      0.00%  10000.00%
                              98            0      0.00%  10000.00%
system.cpu0.ISSUE:(null)_delay.max_value           21                      
system.cpu0.ISSUE:(null)_delay.end_dist

system.cpu0.ISSUE:IntAlu_delay.start_dist 
system.cpu0.ISSUE:IntAlu_delay.samples      125725810                      
system.cpu0.ISSUE:IntAlu_delay.min_value            0                      
                               0    113166935   9001.09%   9001.09%
                               2      5584969    444.22%   9445.31%
                               4      1866972    148.50%   9593.80%
                               6       837555     66.62%   9660.42%
                               8       495006     39.37%   9699.79%
                              10       333511     26.53%   9726.32%
                              12       536167     42.65%   9768.97%
                              14      1336145    106.27%   9875.24%
                              16       796539     63.36%   9938.60%
                              18       301644     23.99%   9962.59%
                              20       239551     19.05%   9981.64%
                              22       220587     17.55%   9999.19%
                              24        10229      0.81%  10000.00%
                              26            0      0.00%  10000.00%
                              28            0      0.00%  10000.00%
                              30            0      0.00%  10000.00%
                              32            0      0.00%  10000.00%
                              34            0      0.00%  10000.00%
                              36            0      0.00%  10000.00%
                              38            0      0.00%  10000.00%
                              40            0      0.00%  10000.00%
                              42            0      0.00%  10000.00%
                              44            0      0.00%  10000.00%
                              46            0      0.00%  10000.00%
                              48            0      0.00%  10000.00%
                              50            0      0.00%  10000.00%
                              52            0      0.00%  10000.00%
                              54            0      0.00%  10000.00%
                              56            0      0.00%  10000.00%
                              58            0      0.00%  10000.00%
                              60            0      0.00%  10000.00%
                              62            0      0.00%  10000.00%
                              64            0      0.00%  10000.00%
                              66            0      0.00%  10000.00%
                              68            0      0.00%  10000.00%
                              70            0      0.00%  10000.00%
                              72            0      0.00%  10000.00%
                              74            0      0.00%  10000.00%
                              76            0      0.00%  10000.00%
                              78            0      0.00%  10000.00%
                              80            0      0.00%  10000.00%
                              82            0      0.00%  10000.00%
                              84            0      0.00%  10000.00%
                              86            0      0.00%  10000.00%
                              88            0      0.00%  10000.00%
                              90            0      0.00%  10000.00%
                              92            0      0.00%  10000.00%
                              94            0      0.00%  10000.00%
                              96            0      0.00%  10000.00%
                              98            0      0.00%  10000.00%
system.cpu0.ISSUE:IntAlu_delay.max_value           24                      
system.cpu0.ISSUE:IntAlu_delay.end_dist

system.cpu0.ISSUE:IntMult_delay.start_dist
system.cpu0.ISSUE:IntMult_delay.samples        388789                      
system.cpu0.ISSUE:IntMult_delay.min_value            0                      
                               0       290352   7468.11%   7468.11%
                               2        50432   1297.16%   8765.27%
                               4        23507    604.62%   9369.89%
                               6         6478    166.62%   9536.51%
                               8         1344     34.57%   9571.08%
                              10         2316     59.57%   9630.65%
                              12         1808     46.50%   9677.15%
                              14         2095     53.89%   9731.04%
                              16          930     23.92%   9754.96%
                              18         3334     85.75%   9840.71%
                              20         3189     82.02%   9922.73%
                              22         2179     56.05%   9978.78%
                              24          825     21.22%  10000.00%
                              26            0      0.00%  10000.00%
                              28            0      0.00%  10000.00%
                              30            0      0.00%  10000.00%
                              32            0      0.00%  10000.00%
                              34            0      0.00%  10000.00%
                              36            0      0.00%  10000.00%
                              38            0      0.00%  10000.00%
                              40            0      0.00%  10000.00%
                              42            0      0.00%  10000.00%
                              44            0      0.00%  10000.00%
                              46            0      0.00%  10000.00%
                              48            0      0.00%  10000.00%
                              50            0      0.00%  10000.00%
                              52            0      0.00%  10000.00%
                              54            0      0.00%  10000.00%
                              56            0      0.00%  10000.00%
                              58            0      0.00%  10000.00%
                              60            0      0.00%  10000.00%
                              62            0      0.00%  10000.00%
                              64            0      0.00%  10000.00%
                              66            0      0.00%  10000.00%
                              68            0      0.00%  10000.00%
                              70            0      0.00%  10000.00%
                              72            0      0.00%  10000.00%
                              74            0      0.00%  10000.00%
                              76            0      0.00%  10000.00%
                              78            0      0.00%  10000.00%
                              80            0      0.00%  10000.00%
                              82            0      0.00%  10000.00%
                              84            0      0.00%  10000.00%
                              86            0      0.00%  10000.00%
                              88            0      0.00%  10000.00%
                              90            0      0.00%  10000.00%
                              92            0      0.00%  10000.00%
                              94            0      0.00%  10000.00%
                              96            0      0.00%  10000.00%
                              98            0      0.00%  10000.00%
system.cpu0.ISSUE:IntMult_delay.max_value           24                      
system.cpu0.ISSUE:IntMult_delay.end_dist

system.cpu0.ISSUE:IntDiv_delay.start_dist 
system.cpu0.ISSUE:IntDiv_delay.samples              0                      
system.cpu0.ISSUE:IntDiv_delay.min_value            0                      
                               0            0                      
                               2            0                      
                               4            0                      
                               6            0                      
                               8            0                      
                              10            0                      
                              12            0                      
                              14            0                      
                              16            0                      
                              18            0                      
                              20            0                      
                              22            0                      
                              24            0                      
                              26            0                      
                              28            0                      
                              30            0                      
                              32            0                      
                              34            0                      
                              36            0                      
                              38            0                      
                              40            0                      
                              42            0                      
                              44            0                      
                              46            0                      
                              48            0                      
                              50            0                      
                              52            0                      
                              54            0                      
                              56            0                      
                              58            0                      
                              60            0                      
                              62            0                      
                              64            0                      
                              66            0                      
                              68            0                      
                              70            0                      
                              72            0                      
                              74            0                      
                              76            0                      
                              78            0                      
                              80            0                      
                              82            0                      
                              84            0                      
                              86            0                      
                              88            0                      
                              90            0                      
                              92            0                      
                              94            0                      
                              96            0                      
                              98            0                      
system.cpu0.ISSUE:IntDiv_delay.max_value            0                      
system.cpu0.ISSUE:IntDiv_delay.end_dist

system.cpu0.ISSUE:FloatAdd_delay.start_dist
system.cpu0.ISSUE:FloatAdd_delay.samples         9690                      
system.cpu0.ISSUE:FloatAdd_delay.min_value            0                      
                               0         4958   5116.62%   5116.62%
                               2          165    170.28%   5286.89%
                               4            7      7.22%   5294.12%
                               6          552    569.66%   5863.78%
[...]
system.cpu0.kern.ipl_ticks_31               105752197      3.98%    100.00%
system.cpu0.kern.ipl_used                    0.866977                      
system.cpu0.kern.ipl_used_0                  0.984437                      
system.cpu0.kern.ipl_used_21                        1                      
system.cpu0.kern.ipl_used_22                        1                      
system.cpu0.kern.ipl_used_31                 0.769022                      
system.cpu0.kern.mode_good_kernel                3157                      
system.cpu0.kern.mode_good_user                  2843                      
system.cpu0.kern.mode_good_idle                   185                      
system.cpu0.kern.mode_good_interrupt              129                      
system.cpu0.kern.mode_switch_kernel             13750                      
system.cpu0.kern.mode_switch_user                2843                      
system.cpu0.kern.mode_switch_idle               17697                      
system.cpu0.kern.mode_switch_interrupt            129                      
system.cpu0.kern.mode_switch_good            0.183445                      
system.cpu0.kern.mode_switch_good_kernel     0.229600                      
system.cpu0.kern.mode_switch_good_user              1                      
system.cpu0.kern.mode_switch_good_idle       0.010454                      
system.cpu0.kern.mode_switch_good_interrupt            1                      
system.cpu0.kern.mode_ticks_kernel           73688611      2.77%      2.77%
system.cpu0.kern.mode_ticks_user             16465414      0.62%      3.39%
system.cpu0.kern.mode_ticks_idle           2564458670     96.55%     99.94%
system.cpu0.kern.mode_ticks_interrupt         1564613      0.06%    100.00%
system.cpu0.kern.swap_context                    5595                      
system.cpu0.kern.syscall                          669                      
system.cpu0.kern.syscall_exit                       1      0.15%      0.15%
system.cpu0.kern.syscall_fork                      12      1.79%      1.94%
system.cpu0.kern.syscall_read                      47      7.03%      8.97%
system.cpu0.kern.syscall_write                     49      7.32%     16.29%
system.cpu0.kern.syscall_close                     74     11.06%     27.35%
system.cpu0.kern.syscall_chdir                      2      0.30%     27.65%
system.cpu0.kern.syscall_chmod                      1      0.15%     27.80%
system.cpu0.kern.syscall_obreak                    60      8.97%     36.77%
system.cpu0.kern.syscall_lseek                     12      1.79%     38.57%
system.cpu0.kern.syscall_getpid                    11      1.64%     40.21%
system.cpu0.kern.syscall_setuid                     4      0.60%     40.81%
system.cpu0.kern.syscall_getuid                    12      1.79%     42.60%
system.cpu0.kern.syscall_access                     4      0.60%     43.20%
system.cpu0.kern.syscall_dup                        4      0.60%     43.80%
system.cpu0.kern.syscall_open                      99     14.80%     58.59%
system.cpu0.kern.syscall_getgid                    12      1.79%     60.39%
system.cpu0.kern.syscall_sigprocmask               17      2.54%     62.93%
system.cpu0.kern.syscall_ioctl                     23      3.44%     66.37%
system.cpu0.kern.syscall_readlink                   3      0.45%     66.82%
system.cpu0.kern.syscall_execve                     9      1.35%     68.16%
system.cpu0.kern.syscall_pre_F64_stat              36      5.38%     73.54%
system.cpu0.kern.syscall_pre_F64_lstat              1      0.15%     73.69%
system.cpu0.kern.syscall_mmap                      69     10.31%     84.01%
system.cpu0.kern.syscall_munmap                    11      1.64%     85.65%
system.cpu0.kern.syscall_mprotect                  17      2.54%     88.19%
system.cpu0.kern.syscall_gethostname                3      0.45%     88.64%
system.cpu0.kern.syscall_dup2                       3      0.45%     89.09%
system.cpu0.kern.syscall_pre_F64_fstat             36      5.38%     94.47%
system.cpu0.kern.syscall_fcntl                     18      2.69%     97.16%
system.cpu0.kern.syscall_socket                     4      0.60%     97.76%
system.cpu0.kern.syscall_connect                    4      0.60%     98.36%
system.cpu0.kern.syscall_setgid                     4      0.60%     98.95%
system.cpu0.kern.syscall_getrlimit                  2      0.30%     99.25%
system.cpu0.kern.syscall_setsid                     3      0.45%     99.70%
system.cpu0.kern.syscall_getsysinfo                 1      0.15%     99.85%
system.cpu0.kern.syscall_setsysinfo                 1      0.15%    100.00%
system.cpu0.numCycles                      2656178897                      
system.cpu0inst_class_dist.start_dist
                   All ops ready            0      0.00%           
                One op not ready            0      0.00%           
           None rdy, mult chains            0      0.00%           
           None rdy, one chained            0      0.00%           
        None rdy, all self-timed            0      0.00%           
system.cpu0inst_class_dist.end_dist
system.htbus.addr_idle_cycles              2655197201                      
system.htbus.addr_idle_fraction              0.999630                      
system.htbus.addr_queued                    44.884414                      
system.htbus.addr_queued_cycles               6051182                      
system.htbus.addr_requests                     134817                      
system.htbus.bus_blocked                            0                      
system.htbus.bus_blocked_cycles                     0                      
system.htbus.bus_blocked_fraction                   0                      
system.htbus.data_idle_cycles              2655095350                      
system.htbus.data_idle_fraction              0.999592                      
system.htbus.data_queued                            1                      
system.htbus.data_queued_cycles                  8755                      
system.htbus.data_requests                       8755                      
system.htbus.null_grants                            0                      
system.kern.fnCalls                                 0                      
system.l2.avg_blocked_cycles_no_mshrs    <err: div-0>                      
system.l2.avg_blocked_cycles_no_targets  <err: div-0>                      
system.l2.avg_refs                           2.385281                      
system.l2.blocked_no_mshrs                          0                      
system.l2.blocked_no_targets                        0                      
system.l2.blocked_cycles_no_mshrs                   0                      
system.l2.blocked_cycles_no_targets                 0                      
system.l2.cache_copies                              0                      
system.l2.demand_accesses                     3327559                      
system.l2.demand_avg_miss_latency           69.893683                      
system.l2.demand_avg_mshr_miss_latency      39.974248                      
system.l2.demand_hits                         2145687                      
system.l2.demand_miss_latency                82605387                      
system.l2.demand_miss_rate                   0.355177                      
system.l2.demand_misses                       1181872                      
system.l2.demand_mshr_hits                          0                      
system.l2.demand_mshr_miss_latency           47244445                      
system.l2.demand_mshr_miss_rate              0.355177                      
system.l2.demand_mshr_misses                  1181872                      
system.l2.fast_writes                               0                      
system.l2.mshr_cap_events                           0                      
system.l2.no_allocate_misses                        0                      
system.l2.overall_accesses                    3997176                      
system.l2.overall_avg_miss_latency          69.893683                      
system.l2.overall_avg_mshr_miss_latency     39.974248                      
system.l2.overall_avg_mshr_uncacheable_latency   236.669323                      
system.l2.overall_hits                        2815304                      
system.l2.overall_miss_latency               82605387                      
system.l2.overall_miss_rate                  0.295677                      
system.l2.overall_misses                      1181872                      
system.l2.overall_mshr_hits                         0                      
system.l2.overall_mshr_miss_latency          47244445                      
system.l2.overall_mshr_miss_rate             0.295677                      
system.l2.overall_mshr_misses                 1181872                      
system.l2.overall_mshr_uncacheable_latency      5820882                      
system.l2.overall_mshr_uncacheable_misses        24595                      
system.l2.prefetcher.num_hwpf_already_in_cache            0                      
system.l2.prefetcher.num_hwpf_already_in_mshr            0                      
system.l2.prefetcher.num_hwpf_already_in_prefetcher            0                      
system.l2.prefetcher.num_hwpf_evicted               0                      
system.l2.prefetcher.num_hwpf_identified            0                      
system.l2.prefetcher.num_hwpf_issued                0                      
system.l2.prefetcher.num_hwpf_removed_MSHR_hit            0                      
system.l2.prefetcher.num_hwpf_span_page             0                      
system.l2.prefetcher.num_hwpf_squashed_from_miss            0                      
system.l2.read_accesses                       3327559                      
system.l2.read_avg_miss_latency             69.893683                      
system.l2.read_avg_mshr_miss_latency        39.974248                      
system.l2.read_avg_mshr_uncacheable_latency   253.261276                      
system.l2.read_hits                           2145687                      
system.l2.read_miss_latency                  82605387                      
system.l2.read_miss_rate                     0.355177                      
system.l2.read_misses                         1181872                      
system.l2.read_mshr_miss_latency             47244445                      
system.l2.read_mshr_miss_rate                0.355177                      
system.l2.read_mshr_misses                    1181872                      
system.l2.read_mshr_uncacheable                  9511                      
system.l2.read_mshr_uncacheable_latency       2408768                      
system.l2.replacements                        1147779                      
system.l2.sampled_refs                        1179961                      
system.l2.soft_prefetch_mshr_full                   0                      
system.l2.tagsinuse                      31950.195352                      
system.l2.total_refs                          2814539                      
system.l2.warmup_cycle                        3662778                      
system.l2.write_avg_mshr_uncacheable_latency   226.207505                      
system.l2.write_mshr_uncacheable                15084                      
system.l2.write_mshr_uncacheable_latency      3412114                      
system.l2.writeback_accesses                   669617                      
system.l2.writeback_hits                       669617                      
system.l2.writebacks                           145910                      
system.l2bus.addr_idle_cycles              2652086227                      
system.l2bus.addr_idle_fraction              0.998459                      
system.l2bus.addr_queued                     4.048047                      
system.l2bus.addr_queued_cycles              16563525                      
system.l2bus.addr_requests                    4091732                      
system.l2bus.bus_blocked                          210                      
system.l2bus.bus_blocked_cycles                107604                      
system.l2bus.bus_blocked_fraction            0.000041                      
system.l2bus.data_idle_cycles              2652157049                      
system.l2bus.data_idle_fraction              0.998486                      
system.l2bus.data_queued                     1.016060                      
system.l2bus.data_queued_cycles               3390690                      
system.l2bus.data_requests                    3337096                      
system.l2bus.null_grants                        62849                      
system.membus.addr_idle_cycles             2654693825                      
system.membus.addr_idle_fraction             0.999441                      
system.membus.addr_queued                   26.969641                      
system.membus.addr_queued_cycles             39841927                      
system.membus.addr_requests                   1477288                      
system.membus.bus_blocked                           0                      
system.membus.bus_blocked_cycles                    0                      
system.membus.bus_blocked_fraction                  0                      
system.membus.data_idle_cycles             2650615312                      
system.membus.data_idle_fraction             0.997905                      
system.membus.data_queued                    2.162369                      
system.membus.data_queued_cycles              2576701                      
system.membus.data_requests                   1191610                      
system.membus.null_grants                           0                      
system.pcibus.addr_idle_cycles             2654862189                      
system.pcibus.addr_idle_fraction             0.999504                      
system.pcibus.addr_queued                  552.755587                      
system.pcibus.addr_queued_cycles             74520850                      
system.pcibus.addr_requests                    134817                      
system.pcibus.bus_blocked                        3426                      
system.pcibus.bus_blocked_cycles               140463                      
system.pcibus.bus_blocked_fraction           0.000053                      
system.pcibus.data_idle_cycles             2653961445                      
system.pcibus.data_idle_fraction             0.999165                      
system.pcibus.data_queued                    3.256425                      
system.pcibus.data_queued_cycles                28510                      
system.pcibus.data_requests                      8755                      
system.pcibus.null_grants                           0                      
system.ram.accesses                           1382809                      
system.ram.bytes_requested                          0                      
system.ram.bytes_sent                               0                      
system.ram.compressed_responses                     0                      
system.tsunami.etherdev0.coalescedRxDesc <err: div-0>                      
system.tsunami.etherdev0.coalescedRxIdle <err: div-0>                      
system.tsunami.etherdev0.coalescedRxOk   <err: div-0>                      
system.tsunami.etherdev0.coalescedRxOrn  <err: div-0>                      
system.tsunami.etherdev0.coalescedSwi    <err: div-0>                      
system.tsunami.etherdev0.coalescedTotal  <err: div-0>                      
system.tsunami.etherdev0.coalescedTxDesc <err: div-0>                      
system.tsunami.etherdev0.coalescedTxIdle <err: div-0>                      
system.tsunami.etherdev0.coalescedTxOk   <err: div-0>                      
system.tsunami.etherdev0.descDMAReads               0                      
system.tsunami.etherdev0.descDMAWrites              0                      
system.tsunami.etherdev0.descDmaReadBytes            0                      
system.tsunami.etherdev0.descDmaWriteBytes            0                      
system.tsunami.etherdev0.dma.avg_large_transaction_latency <err: div-0>                      
system.tsunami.etherdev0.dma.avg_small_transaction_latency <err: div-0>                      
system.tsunami.etherdev0.dma.avg_transaction_latency <err: div-0>                      
system.tsunami.etherdev0.dma.bytes_transfered            0                      
system.tsunami.etherdev0.dma.large_transaction_latency            0                      
system.tsunami.etherdev0.dma.large_transactions            0                      
system.tsunami.etherdev0.dma.packets_sent            0                      
system.tsunami.etherdev0.dma.requests               0                      
system.tsunami.etherdev0.dma.round_trip_latency <err: div-0>                      
system.tsunami.etherdev0.dma.small_transaction_latency            0                      
system.tsunami.etherdev0.dma.small_transactions            0                      
system.tsunami.etherdev0.dma.total_cycle_latency            0                      
system.tsunami.etherdev0.dma.transaction_latency            0                      
system.tsunami.etherdev0.droppedPackets             0                      
system.tsunami.etherdev0.postedInterrupts            0                      
system.tsunami.etherdev0.postedRxDesc               0                      
system.tsunami.etherdev0.postedRxIdle               0                      
system.tsunami.etherdev0.postedRxOk                 0                      
system.tsunami.etherdev0.postedRxOrn                0                      
system.tsunami.etherdev0.postedSwi                  0                      
system.tsunami.etherdev0.postedTxDesc               0                      
system.tsunami.etherdev0.postedTxIdle               0                      
system.tsunami.etherdev0.postedTxOk                 0                      
system.tsunami.etherdev0.totalRxDesc                0                      
system.tsunami.etherdev0.totalRxIdle                0                      
system.tsunami.etherdev0.totalRxOk                  0                      
system.tsunami.etherdev0.totalRxOrn                 0                      
system.tsunami.etherdev0.totalSwi                   0                      
system.tsunami.etherdev0.totalTxDesc                0                      
system.tsunami.etherdev0.totalTxIdle                0                      
system.tsunami.etherdev0.totalTxOk                  0                      
system.tsunami.ide.dma.avg_large_transaction_latency  2838.342256                      
system.tsunami.ide.dma.avg_small_transaction_latency   281.928910                      
system.tsunami.ide.dma.avg_transaction_latency  2103.460490                      
system.tsunami.ide.dma.bytes_transfered       3521040                      
system.tsunami.ide.dma.large_transaction_latency      1484453                      
system.tsunami.ide.dma.large_transactions          523                      
system.tsunami.ide.dma.packets_sent             55027                      
system.tsunami.ide.dma.requests                   734                      
system.tsunami.ide.dma.round_trip_latency  1589.112599                      
system.tsunami.ide.dma.small_transaction_latency        59487                      
system.tsunami.ide.dma.small_transactions          211                      
system.tsunami.ide.dma.total_cycle_latency     87444099                      
system.tsunami.ide.dma.transaction_latency      1543940                      

---------- End Simulation Statistics   ----------
