system.cpu0.POWER.DYNAMIC:bpred_block_average     0.256082                      
system.cpu0.POWER.DYNAMIC:dcache_block_average     0.662574                      
system.cpu0.POWER.DYNAMIC:dtlb_block_average     0.007675                      
system.cpu0.POWER.DYNAMIC:fpalu_block_average     0.191681                      
system.cpu0.POWER.DYNAMIC:fpmap_block_average     0.021895                      
system.cpu0.POWER.DYNAMIC:fpmul_block_average     0.191664                      
system.cpu0.POWER.DYNAMIC:fpq_block_average     0.115354                      
system.cpu0.POWER.DYNAMIC:fpreg_block_average     0.073253                      
system.cpu0.POWER.DYNAMIC:icache_block_average     0.476775                      
system.cpu0.POWER.DYNAMIC:intalu_block_average     0.609463                      
system.cpu0.POWER.DYNAMIC:intmap_block_average     0.030015                      
system.cpu0.POWER.DYNAMIC:intq_block_average     0.248241                      
system.cpu0.POWER.DYNAMIC:intreg_block_average     0.235181                      
system.cpu0.POWER.DYNAMIC:itlb_block_average     0.005523                      
system.cpu0.POWER.DYNAMIC:lsq_block_average     0.088019                      
3.213395




---------- Begin Simulation Statistics ----------
host_inst_rate                                  28208                      
host_mem_usage                                 195044                      
host_seconds                                  5186.32                      
host_tick_rate                                 193480                      
sim_freq                                    500000000                      
sim_insts                                   146294731                      
sim_seconds                                  2.006892                      
sim_ticks                                  1003446158                      
system.cpu0.COM:IPB                          4.698100                      
system.cpu0.COM:IPC                          0.145792                      
system.cpu0.COM:branches                     31139127                      
system.cpu0.COM:bw_lim_avg               <err: div-0>                      
system.cpu0.COM:bw_lim_events                       0                      
system.cpu0.COM:bw_lim_rate                    0.0000                      
system.cpu0.COM:bw_lim_stdev_0_mean      <err: div-0>                      
system.cpu0.COM:bw_lim_stdev_0_stdev     <err: div-0>                      
**Ignore: system.cpu0.COM:bw_lim_stdev_0_TOT       0.0000                      
system.cpu0.COM:bw_limited                          0                      
system.cpu0.COM:committed_per_cycle.start_dist
system.cpu0.COM:committed_per_cycle.samples     46146343                      
system.cpu0.COM:committed_per_cycle.min_value            0                      
                               0       399949     86.67%           
                               1      8299941   1798.61%           
                               2      4156657    900.76%           
                               3      3264828    707.49%           
                               4     30024968   6506.47%           
system.cpu0.COM:committed_per_cycle.max_value            4                      
system.cpu0.COM:committed_per_cycle.end_dist

system.cpu0.COM:count                       146294731                      
system.cpu0.COM:loads                        16431904                      
system.cpu0.COM:membars                        306714                      
system.cpu0.COM:refs                         27388625                      
system.cpu0.COM:stores                       10956721                      
system.cpu0.COM:swp_count                      212880                      
system.cpu0.DDQ:count                      5593218010                      
system.cpu0.DDQ:rate                                6                      
system.cpu0.DIS:chain_creation.start_dist
     Inst has no outstanding IDEPS            0      0.00%           
      IDEP chain reached max depth            0      0.00%           
                    Inst is a load            0      0.00%           
  Chain has multiple chained IDEPS            0      0.00%           
system.cpu0.DIS:chain_creation.end_dist
system.cpu0.DIS:chain_head_frac                     0                      
system.cpu0.DIS:chain_heads                         0                      
system.cpu0.DIS:chains_insuf                        0                      
system.cpu0.DIS:chains_insuf_rate                   0                      
system.cpu0.DIS:count                       167797347                      
system.cpu0.DIS:insufficient_chains                 0                      
system.cpu0.DIS:mod_n_stall_avg_free     <err: div-0>                      
system.cpu0.DIS:mod_n_stall_frac                    0                      
system.cpu0.DIS:mod_n_stall_free                    0                      
system.cpu0.DIS:mod_n_stalls                        0                      
system.cpu0.DIS:one_rdy_insts                       0                      
system.cpu0.DIS:one_rdy_ratio            <err: div-0>                      
system.cpu0.DIS:op_count                    200909497                      
system.cpu0.DIS:op_rate                      0.200220                      
system.cpu0.DIS:rate                         0.167221                      
system.cpu0.DIS:second_choice_clust                 0                      
system.cpu0.DIS:second_choice_stall                 0                      
system.cpu0.DIS:serialize_stall_cycles        9745890                      
system.cpu0.DIS:serializing_insts              293189                      
system.cpu0.DIS:two_input_insts                     0                      
system.cpu0.DIS:two_input_ratio                     0                      
system.cpu0.FETCH:branch_count               47003330                      
system.cpu0.FETCH:branch_rate                0.046842                      
system.cpu0.FETCH:chance_pct                        1                      
system.cpu0.FETCH:chances                    62148322                      
system.cpu0.FETCH:choice                     62148322                      
system.cpu0.FETCH:count                     230166766                      
system.cpu0.FETCH:decisions                  62148322                      
system.cpu0.FETCH:idle_cycles               941297837                      
system.cpu0.FETCH:idle_icache_blocked_cycles            0                      
system.cpu0.FETCH:idle_rate                     93.81                      
system.cpu0.FETCH:prio_changes                      0                      
system.cpu0.FETCH:rate                       0.229376                      
system.cpu0.FETCH:rate_dist.start_dist    
system.cpu0.FETCH:rate_dist.samples          62148322                      
system.cpu0.FETCH:rate_dist.min_value               0                      
                               0       201489     32.42%           
                               1      2102935    338.37%           
                               2      2045302    329.10%           
                               3      7221157   1161.92%           
                               4     50577439   8138.18%           
system.cpu0.FETCH:rate_dist.max_value               4                      
system.cpu0.FETCH:rate_dist.end_dist

system.cpu0.FETCH:rate_dist_0.start_dist  
system.cpu0.FETCH:rate_dist_0.samples        62148322                      
system.cpu0.FETCH:rate_dist_0.min_value             0                      
                               0       201489     32.42%           
                               1      2102935    338.37%           
                               2      2045302    329.10%           
                               3      7221157   1161.92%           
                               4     50577439   8138.18%           
system.cpu0.FETCH:rate_dist_0.max_value             4                      
system.cpu0.FETCH:rate_dist_0.end_dist

system.cpu0.IFQ:count                      1830760634                      
system.cpu0.IFQ:full_count                   46978582                      
system.cpu0.IFQ:full_rate                    4.681724                      
system.cpu0.IFQ:latency                     10.910546                      
system.cpu0.IFQ:occupancy                    1.824473                      
system.cpu0.IFQ:qfull_iq_occ               1593625044                      
system.cpu0.IFQ:qfull_iq_occ_dist_0.start_dist
system.cpu0.IFQ:qfull_iq_occ_dist_0.samples     32668406                      
system.cpu0.IFQ:qfull_iq_occ_dist_0.min_value            0                      
                               0      6067577   1857.32%           
                              10       789105    241.55%           
                              20       680852    208.41%           
                              30       836785    256.15%           
                              40      1083490    331.66%           
                              50      1007381    308.37%           
                              60     22203216   6796.54%           
system.cpu0.IFQ:qfull_iq_occ_dist_0.max_value           64                      
system.cpu0.IFQ:qfull_iq_occ_dist_0.end_dist

system.cpu0.IFQ:qfull_rob_occ              2656535061                      
system.cpu0.IFQ:qfull_rob_occ_dist_0.start_dist
system.cpu0.IFQ:qfull_rob_occ_dist_0.samples     32668406                      
system.cpu0.IFQ:qfull_rob_occ_dist_0.min_value            1                      
                               0      1298996    397.63%           
                              10      1782719    545.70%           
                              20      1259068    385.41%           
                              30       498027    152.45%           
                              40       302390     92.56%           
                              50       224404     68.69%           
                              60      5450601   1668.46%           
                              70      1575128    482.16%           
                              80       730043    223.47%           
                              90     14202628   4347.51%           
                             100      1204825    368.80%           
                             110      1779503    544.72%           
                             120      2360074    722.43%           
                             130            0      0.00%           
system.cpu0.IFQ:qfull_rob_occ_dist_0.max_value          128                      
system.cpu0.IFQ:qfull_rob_occ_dist_0.end_dist

system.cpu0.IQ:cap_events                           0                      
system.cpu0.IQ:cap_inst                             0                      
system.cpu0.IQ:residence:(null).start_dist
system.cpu0.IQ:residence:(null).samples          9712                      
system.cpu0.IQ:residence:(null).min_value            1                      
                               0         8741   9000.21%   9000.21%
                               2          631    649.71%   9649.92%
                               4          162    166.80%   9816.72%
                               6           30     30.89%   9847.61%
                               8          128    131.80%   9979.41%
                              10            6      6.18%   9985.58%
                              12            4      4.12%   9989.70%
                              14            5      5.15%   9994.85%
                              16            1      1.03%   9995.88%
                              18            1      1.03%   9996.91%
                              20            3      3.09%  10000.00%
                              22            0      0.00%  10000.00%
                              24            0      0.00%  10000.00%
                              26            0      0.00%  10000.00%
                              28            0      0.00%  10000.00%
                              30            0      0.00%  10000.00%
                              32            0      0.00%  10000.00%
                              34            0      0.00%  10000.00%
                              36            0      0.00%  10000.00%
                              38            0      0.00%  10000.00%
                              40            0      0.00%  10000.00%
                              42            0      0.00%  10000.00%
                              44            0      0.00%  10000.00%
                              46            0      0.00%  10000.00%
                              48            0      0.00%  10000.00%
                              50            0      0.00%  10000.00%
                              52            0      0.00%  10000.00%
                              54            0      0.00%  10000.00%
                              56            0      0.00%  10000.00%
                              58            0      0.00%  10000.00%
                              60            0      0.00%  10000.00%
                              62            0      0.00%  10000.00%
                              64            0      0.00%  10000.00%
                              66            0      0.00%  10000.00%
                              68            0      0.00%  10000.00%
                              70            0      0.00%  10000.00%
                              72            0      0.00%  10000.00%
                              74            0      0.00%  10000.00%
                              76            0      0.00%  10000.00%
                              78            0      0.00%  10000.00%
                              80            0      0.00%  10000.00%
                              82            0      0.00%  10000.00%
                              84            0      0.00%  10000.00%
                              86            0      0.00%  10000.00%
                              88            0      0.00%  10000.00%
                              90            0      0.00%  10000.00%
                              92            0      0.00%  10000.00%
                              94            0      0.00%  10000.00%
                              96            0      0.00%  10000.00%
                              98            0      0.00%  10000.00%
system.cpu0.IQ:residence:(null).max_value           21                      
system.cpu0.IQ:residence:(null).end_dist

system.cpu0.IQ:residence:IntAlu.start_dist
system.cpu0.IQ:residence:IntAlu.samples     124158744                      
system.cpu0.IQ:residence:IntAlu.min_value            1                      
                               0     35082245   2825.60%   2825.60%
                               2     39319473   3166.87%   5992.47%
                               4      6506993    524.09%   6516.55%
                               6      5126040    412.86%   6929.42%
                               8      4093777    329.72%   7259.14%
                              10      2786515    224.43%   7483.57%
                              12      2488221    200.41%   7683.97%
                              14      3415257    275.07%   7959.05%
                              16      3796723    305.80%   8264.84%
                              18      2620000    211.02%   8475.86%
                              20      2638643    212.52%   8688.38%
                              22      3173689    255.62%   8944.00%
                              24      1877705    151.23%   9095.23%
                              26       978380     78.80%   9174.03%
                              28       619703     49.91%   9223.95%
                              30       622107     50.11%   9274.05%
                              32       562950     45.34%   9319.39%
                              34       464520     37.41%   9356.81%
                              36       555001     44.70%   9401.51%
                              38       492339     39.65%   9441.16%
                              40       425188     34.25%   9475.41%
                              42       328845     26.49%   9501.89%
                              44       342558     27.59%   9529.48%
                              46       303675     24.46%   9553.94%
                              48       251245     20.24%   9574.18%
                              50       241432     19.45%   9593.62%
                              52       241187     19.43%   9613.05%
                              54       253342     20.40%   9633.45%
                              56       109236      8.80%   9642.25%
                              58       128868     10.38%   9652.63%
                              60       112859      9.09%   9661.72%
                              62       201901     16.26%   9677.98%
                              64       112519      9.06%   9687.05%
                              66        94313      7.60%   9694.64%
                              68       100626      8.10%   9702.75%
                              70        64833      5.22%   9707.97%
                              72        81495      6.56%   9714.53%
                              74        70721      5.70%   9720.23%
                              76        94900      7.64%   9727.87%
                              78       110839      8.93%   9736.80%
                              80        53330      4.30%   9741.09%
                              82        52717      4.25%   9745.34%
                              84        52822      4.25%   9749.59%
                              86        56437      4.55%   9754.14%
                              88        64942      5.23%   9759.37%
                              90        69652      5.61%   9764.98%
                              92        39546      3.19%   9768.16%
                              94        35413      2.85%   9771.02%
                              96        44903      3.62%   9774.63%
                              98        69406      5.59%   9780.22%
system.cpu0.IQ:residence:IntAlu.overflows      2728713                      
system.cpu0.IQ:residence:IntAlu.max_value        21443                      
system.cpu0.IQ:residence:IntAlu.end_dist

system.cpu0.IQ:residence:IntMult.start_dist
system.cpu0.IQ:residence:IntMult.samples       385750                      
system.cpu0.IQ:residence:IntMult.min_value            1                      
                               0         7325    189.89%    189.89%
                               2         5300    137.39%    327.28%
                               4        10952    283.91%    611.20%
                               6         6916    179.29%    790.49%
                               8         8309    215.40%   1005.88%
                              10         7589    196.73%   1202.62%
                              12         6177    160.13%   1362.75%
                              14         9657    250.34%   1613.09%
                              16         9655    250.29%   1863.38%
                              18        19901    515.90%   2379.29%
                              20        90235   2339.21%   4718.50%
                              22       117886   3056.02%   7774.52%
                              24        45334   1175.22%   8949.73%
                              26         3625     93.97%   9043.71%
                              28          392     10.16%   9053.87%
                              30         3491     90.50%   9144.37%
                              32         2755     71.42%   9215.79%
                              34         3117     80.80%   9296.59%
                              36         3361     87.13%   9383.72%
                              38         2535     65.72%   9449.44%
                              40         9601    248.89%   9698.33%
                              42         1285     33.31%   9731.64%
                              44          241      6.25%   9737.89%
                              46          138      3.58%   9741.46%
                              48          180      4.67%   9746.13%
                              50          241      6.25%   9752.38%
                              52          419     10.86%   9763.24%
                              54          263      6.82%   9770.06%
                              56          772     20.01%   9790.07%
                              58          117      3.03%   9793.10%
                              60           23      0.60%   9793.70%
                              62           47      1.22%   9794.92%
                              64           46      1.19%   9796.11%
                              66           67      1.74%   9797.85%
                              68           83      2.15%   9800.00%
                              70          717     18.59%   9818.59%
                              72          272      7.05%   9825.64%
                              74          663     17.19%   9842.83%
                              76          105      2.72%   9845.55%
                              78           70      1.81%   9847.36%
                              80          161      4.17%   9851.54%
                              82           69      1.79%   9853.32%
                              84           46      1.19%   9854.52%
                              86           11      0.29%   9854.80%
                              88           61      1.58%   9856.38%
                              90           19      0.49%   9856.88%
                              92            6      0.16%   9857.03%
                              94           14      0.36%   9857.39%
                              96            4      0.10%   9857.50%
                              98            8      0.21%   9857.71%
system.cpu0.IQ:residence:IntMult.overflows         5489                      
system.cpu0.IQ:residence:IntMult.max_value          842                      
system.cpu0.IQ:residence:IntMult.end_dist

system.cpu0.IQ:residence:IntDiv.start_dist
system.cpu0.IQ:residence:IntDiv.samples             0                      
system.cpu0.IQ:residence:IntDiv.min_value            0                      
                               0            0                      
                               2            0                      
                               4            0                      
                               6            0                      
                               8            0                      
                              10            0                      
                              12            0                      
                              14            0                      
                              16            0                      
                              18            0                      
                              20            0                      
                              22            0                      
                              24            0                      
                              26            0                      
                              28            0                      
                              30            0                      
                              32            0                      
                              34            0                      
                              36            0                      
                              38            0                      
                              40            0                      
                              42            0                      
                              44            0                      
                              46            0                      
                              48            0                      
                              50            0                      
                              52            0                      
                              54            0                      
                              56            0                      
                              58            0                      
                              60            0                      
                              62            0                      
                              64            0                      
                              66            0                      
                              68            0                      
                              70            0                      
                              72            0                      
                              74            0                      
                              76            0                      
                              78            0                      
                              80            0                      
                              82            0                      
                              84            0                      
                              86            0                      
                              88            0                      
                              90            0                      
                              92            0                      
                              94            0                      
                              96            0                      
                              98            0                      
system.cpu0.IQ:residence:IntDiv.max_value            0                      
system.cpu0.IQ:residence:IntDiv.end_dist

system.cpu0.IQ:residence:FloatAdd.start_dist
system.cpu0.IQ:residence:FloatAdd.samples        10118                      
system.cpu0.IQ:residence:FloatAdd.min_value            1                      
                               0          135    133.43%    133.43%
                               2          230    227.32%    360.74%
                               4          161    159.12%    519.87%
                               6         2549   2519.27%   3039.14%
                               8           52     51.39%   3090.53%
                              10          414    409.17%   3499.70%
                              12          897    886.54%   4386.24%
                              14          403    398.30%   4784.54%
                              16         2428   2399.68%   7184.23%
                              18            3      2.97%   7187.19%
                              20            1      0.99%   7188.18%
                              22            0      0.00%   7188.18%
                              24            0      0.00%   7188.18%
                              26            1      0.99%   7189.17%
                              28            0      0.00%   7189.17%
                              30            2      1.98%   7191.14%
                              32           10      9.88%   7201.03%
                              34           50     49.42%   7250.44%
                              36         1915   1892.67%   9143.11%
                              38          862    851.95%   9995.06%
                              40            0      0.00%   9995.06%
                              42            1      0.99%   9996.05%
                              44            0      0.00%   9996.05%
                              46            0      0.00%   9996.05%
                              48            0      0.00%   9996.05%
                              50            0      0.00%   9996.05%
                              52            0      0.00%   9996.05%
                              54            0      0.00%   9996.05%
                              56            0      0.00%   9996.05%
                              58            0      0.00%   9996.05%
                              60            0      0.00%   9996.05%
                              62            0      0.00%   9996.05%
                              64            0      0.00%   9996.05%
                              66            0      0.00%   9996.05%
                              68            0      0.00%   9996.05%
                              70            0      0.00%   9996.05%
                              72            0      0.00%   9996.05%
                              74            0      0.00%   9996.05%
                              76            0      0.00%   9996.05%
                              78            0      0.00%   9996.05%
                              80            0      0.00%   9996.05%
                              82            0      0.00%   9996.05%
                              84            0      0.00%   9996.05%
                              86            0      0.00%   9996.05%
                              88            3      2.97%   9999.01%
                              90            0      0.00%   9999.01%
                              92            0      0.00%   9999.01%
                              94            0      0.00%   9999.01%
                              96            0      0.00%   9999.01%
                              98            1      0.99%  10000.00%
system.cpu0.IQ:residence:FloatAdd.max_value           98                      
system.cpu0.IQ:residence:FloatAdd.end_dist

system.cpu0.IQ:residence:FloatCmp.start_dist
system.cpu0.IQ:residence:FloatCmp.samples            0                      
system.cpu0.IQ:residence:FloatCmp.min_value            0                      
                               0            0                      
                               2            0                      
                               4            0                      
                               6            0                      
                               8            0                      
                              10            0                      
                              12            0                      
                              14            0                      
                              16            0                      
                              18            0                      
                              20            0                      
                              22            0                      
                              24            0                      
                              26            0                      
                              28            0                      
                              30            0                      
                              32            0                      
                              34            0                      
                              36            0                      
                              38            0                      
                              40            0                      
                              42            0                      
                              44            0                      
                              46            0                      
                              48            0                      
                              50            0                      
                              52            0                      
                              54            0                      
                              56            0                      
                              58            0                      
                              60            0                      
                              62            0                      
                              64            0                      
                              66            0                      
                              68            0                      
                              70            0                      
                              72            0                      
                              74            0                      
                              76            0                      
                              78            0                      
                              80            0                      
                              82            0                      
                              84            0                      
                              86            0                      
                              88            0                      
                              90            0                      
                              92            0                      
                              94            0                      
                              96            0                      
                              98            0                      
system.cpu0.IQ:residence:FloatCmp.max_value            0                      
system.cpu0.IQ:residence:FloatCmp.end_dist

system.cpu0.IQ:residence:FloatCvt.start_dist
system.cpu0.IQ:residence:FloatCvt.samples            0                      
system.cpu0.IQ:residence:FloatCvt.min_value            0                      
                               0            0                      
                               2            0                      
                               4            0                      
                               6            0                      
                               8            0                      
                              10            0                      
                              12            0                      
                              14            0                      
                              16            0                      
                              18            0                      
                              20            0                      
                              22            0                      
                              24            0                      
                              26            0                      
                              28            0                      
                              30            0                      
                              32            0                      
                              34            0                      
                              36            0                      
                              38            0                      
                              40            0                      
                              42            0                      
                              44            0                      
                              46            0                      
                              48            0                      
                              50            0                      
                              52            0                      
                              54            0                      
                              56            0                      
                              58            0                      
                              60            0                      
                              62            0                      
                              64            0                      
                              66            0                      
                              68            0                      
                              70            0                      
                              72            0                      
                              74            0                      
                              76            0                      
                              78            0                      
                              80            0                      
                              82            0                      
                              84            0                      
                              86            0                      
                              88            0                      
                              90            0                      
                              92            0                      
                              94            0                      
                              96            0                      
                              98            0                      
system.cpu0.IQ:residence:FloatCvt.max_value            0                      
system.cpu0.IQ:residence:FloatCvt.end_dist

system.cpu0.IQ:residence:FloatMult.start_dist
system.cpu0.IQ:residence:FloatMult.samples            2                      
system.cpu0.IQ:residence:FloatMult.min_value            5                      
                               0            0      0.00%      0.00%
                               2            0      0.00%      0.00%
                               4            1   5000.00%   5000.00%
                               6            0      0.00%   5000.00%
                               8            0      0.00%   5000.00%
                              10            0      0.00%   5000.00%
                              12            0      0.00%   5000.00%
                              14            0      0.00%   5000.00%
                              16            0      0.00%   5000.00%
                              18            0      0.00%   5000.00%
                              20            0      0.00%   5000.00%
                              22            0      0.00%   5000.00%
                              24            0      0.00%   5000.00%
                              26            0      0.00%   5000.00%
                              28            0      0.00%   5000.00%
                              30            0      0.00%   5000.00%
                              32            0      0.00%   5000.00%
                              34            0      0.00%   5000.00%
                              36            0      0.00%   5000.00%
                              38            0      0.00%   5000.00%
                              40            0      0.00%   5000.00%
                              42            0      0.00%   5000.00%
                              44            0      0.00%   5000.00%
                              46            0      0.00%   5000.00%
                              48            0      0.00%   5000.00%
                              50            0      0.00%   5000.00%
                              52            0      0.00%   5000.00%
                              54            0      0.00%   5000.00%
                              56            0      0.00%   5000.00%
                              58            0      0.00%   5000.00%
                              60            0      0.00%   5000.00%
                              62            0      0.00%   5000.00%
                              64            0      0.00%   5000.00%
                              66            0      0.00%   5000.00%
                              68            0      0.00%   5000.00%
                              70            0      0.00%   5000.00%
                              72            1   5000.00%  10000.00%
                              74            0      0.00%  10000.00%
                              76            0      0.00%  10000.00%
                              78            0      0.00%  10000.00%
                              80            0      0.00%  10000.00%
                              82            0      0.00%  10000.00%
                              84            0      0.00%  10000.00%
                              86            0      0.00%  10000.00%
                              88            0      0.00%  10000.00%
                              90            0      0.00%  10000.00%
                              92            0      0.00%  10000.00%
                              94            0      0.00%  10000.00%
                              96            0      0.00%  10000.00%
                              98            0      0.00%  10000.00%
system.cpu0.IQ:residence:FloatMult.max_value           73                      
system.cpu0.IQ:residence:FloatMult.end_dist

system.cpu0.IQ:residence:FloatDiv.start_dist
system.cpu0.IQ:residence:FloatDiv.samples           60                      
system.cpu0.IQ:residence:FloatDiv.min_value            6                      
                               0            0      0.00%      0.00%
                               2            0      0.00%      0.00%
                               4            0      0.00%      0.00%
                               6           59   9833.33%   9833.33%
                               8            0      0.00%   9833.33%
                              10            0      0.00%   9833.33%
                              12            0      0.00%   9833.33%
                              14            0      0.00%   9833.33%
                              16            0      0.00%   9833.33%
                              18            0      0.00%   9833.33%
                              20            0      0.00%   9833.33%
                              22            0      0.00%   9833.33%
                              24            0      0.00%   9833.33%
                              26            0      0.00%   9833.33%
                              28            0      0.00%   9833.33%
                              30            0      0.00%   9833.33%
                              32            1    166.67%  10000.00%
                              34            0      0.00%  10000.00%
                              36            0      0.00%  10000.00%
                              38            0      0.00%  10000.00%
                              40            0      0.00%  10000.00%
                              42            0      0.00%  10000.00%
                              44            0      0.00%  10000.00%
                              46            0      0.00%  10000.00%
                              48            0      0.00%  10000.00%
                              50            0      0.00%  10000.00%
                              52            0      0.00%  10000.00%
                              54            0      0.00%  10000.00%
                              56            0      0.00%  10000.00%
                              58            0      0.00%  10000.00%
                              60            0      0.00%  10000.00%
                              62            0      0.00%  10000.00%
                              64            0      0.00%  10000.00%
                              66            0      0.00%  10000.00%
                              68            0      0.00%  10000.00%
                              70            0      0.00%  10000.00%
                              72            0      0.00%  10000.00%
                              74            0      0.00%  10000.00%
                              76            0      0.00%  10000.00%
                              78            0      0.00%  10000.00%
                              80            0      0.00%  10000.00%
                              82            0      0.00%  10000.00%
                              84            0      0.00%  10000.00%
                              86            0      0.00%  10000.00%
                              88            0      0.00%  10000.00%
                              90            0      0.00%  10000.00%
                              92            0      0.00%  10000.00%
                              94            0      0.00%  10000.00%
                              96            0      0.00%  10000.00%
                              98            0      0.00%  10000.00%
system.cpu0.IQ:residence:FloatDiv.max_value           32                      
system.cpu0.IQ:residence:FloatDiv.end_dist

system.cpu0.IQ:residence:FloatSqrt.start_dist
system.cpu0.IQ:residence:FloatSqrt.samples            0                      
system.cpu0.IQ:residence:FloatSqrt.min_value            0                      
                               0            0                      
                               2            0                      
                               4            0                      
                               6            0                      
                               8            0                      
                              10            0                      
                              12            0                      
                              14            0                      
                              16            0                      
                              18            0                      
                              20            0                      
                              22            0                      
                              24            0                      
                              26            0                      
                              28            0                      
                              30            0                      
                              32            0                      
                              34            0                      
                              36            0                      
                              38            0                      
                              40            0                      
                              42            0                      
                              44            0                      
                              46            0                      
                              48            0                      
                              50            0                      
                              52            0                      
                              54            0                      
                              56            0                      
                              58            0                      
                              60            0                      
                              62            0                      
                              64            0                      
                              66            0                      
                              68            0                      
                              70            0                      
                              72            0                      
                              74            0                      
                              76            0                      
                              78            0                      
                              80            0                      
                              82            0                      
                              84            0                      
                              86            0                      
                              88            0                      
                              90            0                      
                              92            0                      
                              94            0                      
                              96            0                      
                              98            0                      
system.cpu0.IQ:residence:FloatSqrt.max_value            0                      
system.cpu0.IQ:residence:FloatSqrt.end_dist

system.cpu0.IQ:residence:MemRead.start_dist
system.cpu0.IQ:residence:MemRead.samples     36619801                      
system.cpu0.IQ:residence:MemRead.min_value            1                      
                               0      4051908   1106.48%   1106.48%
                               2      6334717   1729.86%   2836.34%
                               4      3224192    880.45%   3716.79%
                               6      2619698    715.38%   4432.17%
                               8      1918472    523.89%   4956.06%
                              10      1597660    436.28%   5392.34%
                              12      1202240    328.30%   5720.64%
                              14      1087969    297.10%   6017.74%
                              16      1199946    327.68%   6345.42%
                              18      1719355    469.52%   6814.94%
                              20      2362290    645.09%   7460.02%
                              22      2912023    795.20%   8255.23%
                              24       955284    260.87%   8516.09%
                              26       244500     66.77%   8582.86%
                              28       206505     56.39%   8639.25%
                              30       162524     44.38%   8683.63%
                              32       142864     39.01%   8722.64%
                              34       215562     58.86%   8781.51%
                              36       250533     68.41%   8849.92%
                              38       244447     66.75%   8916.68%
                              40       169049     46.16%   8962.84%
                              42       186948     51.05%   9013.89%
                              44       134766     36.80%   9050.69%
                              46       172660     47.15%   9097.84%
                              48        83685     22.85%   9120.69%
                              50       120180     32.82%   9153.51%
                              52        72178     19.71%   9173.22%
                              54        87029     23.77%   9196.99%
                              56        41717     11.39%   9208.38%
                              58        53966     14.74%   9223.12%
                              60        77269     21.10%   9244.22%
                              62        66291     18.10%   9262.32%
                              64       120932     33.02%   9295.34%
                              66        34579      9.44%   9304.79%
                              68        30510      8.33%   9313.12%
                              70        51637     14.10%   9327.22%
                              72        54327     14.84%   9342.05%
                              74        31821      8.69%   9350.74%
                              76        27456      7.50%   9358.24%
                              78        67742     18.50%   9376.74%
                              80        38183     10.43%   9387.17%
                              82        28367      7.75%   9394.91%
                              84        37093     10.13%   9405.04%
                              86        48042     13.12%   9418.16%
                              88        19413      5.30%   9423.46%
                              90        25614      6.99%   9430.46%
                              92        21277      5.81%   9436.27%
                              94        33149      9.05%   9445.32%
                              96        30652      8.37%   9453.69%
                              98        11604      3.17%   9456.86%
system.cpu0.IQ:residence:MemRead.overflows      1988976                      
system.cpu0.IQ:residence:MemRead.max_value        21440                      
system.cpu0.IQ:residence:MemRead.end_dist

system.cpu0.IQ:residence:MemWrite.start_dist
system.cpu0.IQ:residence:MemWrite.samples     23043635                      
system.cpu0.IQ:residence:MemWrite.min_value            1                      
                               0      2106425    914.10%    914.10%
                               2      4160801   1805.62%   2719.72%
                               4      2413850   1047.51%   3767.23%
                               6      1973761    856.53%   4623.77%
                               8      1492030    647.48%   5271.25%
                              10       940651    408.20%   5679.45%
                              12       731504    317.44%   5996.89%
                              14       669796    290.66%   6287.56%
                              16       738801    320.61%   6608.17%
                              18       973774    422.58%   7030.75%
                              20      1267668    550.12%   7580.86%
                              22      1764917    765.90%   8346.76%
                              24       938371    407.21%   8753.98%
                              26       237644    103.13%   8857.11%
                              28       189120     82.07%   8939.18%
                              30       133107     57.76%   8996.94%
                              32       183435     79.60%   9076.54%
                              34       185245     80.39%   9156.93%
                              36       210869     91.51%   9248.44%
                              38       167013     72.48%   9320.92%
                              40       161829     70.23%   9391.14%
                              42       116111     50.39%   9441.53%
                              44       108141     46.93%   9488.46%
                              46        72123     31.30%   9519.76%
                              48        57494     24.95%   9544.71%
                              50       156818     68.05%   9612.76%
                              52        68409     29.69%   9642.45%
                              54        35001     15.19%   9657.64%
                              56        30123     13.07%   9670.71%
                              58        20041      8.70%   9679.41%
                              60        46161     20.03%   9699.44%
                              62        63886     27.72%   9727.16%
                              64       123186     53.46%   9780.62%
                              66        23262     10.09%   9790.72%
                              68        16659      7.23%   9797.94%
                              70        19277      8.37%   9806.31%
                              72        22244      9.65%   9815.96%
                              74        16648      7.22%   9823.19%
                              76        33852     14.69%   9837.88%
                              78        42966     18.65%   9856.52%
                              80        35065     15.22%   9871.74%
                              82        20227      8.78%   9880.52%
                              84        12087      5.25%   9885.76%
                              86         8807      3.82%   9889.59%
                              88        10364      4.50%   9894.08%
                              90         8590      3.73%   9897.81%
                              92        14806      6.43%   9904.24%
                              94        12237      5.31%   9909.55%
                              96         6938      3.01%   9912.56%
                              98         5754      2.50%   9915.05%
system.cpu0.IQ:residence:MemWrite.overflows       195747                      
system.cpu0.IQ:residence:MemWrite.max_value        21445                      
system.cpu0.IQ:residence:MemWrite.end_dist

system.cpu0.IQ:residence:IprAccess.start_dist
system.cpu0.IQ:residence:IprAccess.samples      1409951                      
system.cpu0.IQ:residence:IprAccess.min_value            1                      
                               0       292753   2076.33%   2076.33%
                               2       246777   1750.25%   3826.59%
                               4        81122    575.35%   4401.94%
                               6       269217   1909.41%   6311.35%
                               8       225547   1599.68%   7911.03%
                              10        62911    446.19%   8357.22%
                              12        45446    322.32%   8679.54%
                              14        36823    261.17%   8940.71%
                              16        34073    241.66%   9182.37%
                              18        17322    122.86%   9305.22%
                              20        18028    127.86%   9433.09%
                              22        18004    127.69%   9560.78%
                              24        11711     83.06%   9643.84%
                              26         4047     28.70%   9672.54%
                              28         5507     39.06%   9711.60%
                              30         2954     20.95%   9732.55%
                              32         2017     14.31%   9746.86%
                              34         2377     16.86%   9763.72%
                              36         4134     29.32%   9793.04%
                              38         4356     30.89%   9823.93%
                              40          932      6.61%   9830.54%
                              42          508      3.60%   9834.14%
                              44          917      6.50%   9840.65%
                              46          711      5.04%   9845.69%
                              48         1449     10.28%   9855.97%
                              50          809      5.74%   9861.70%
                              52          804      5.70%   9867.41%
                              54          499      3.54%   9870.95%
                              56          499      3.54%   9874.48%
                              58         2510     17.80%   9892.29%
                              60          797      5.65%   9897.94%
                              62          563      3.99%   9901.93%
                              64         2141     15.18%   9917.12%
                              66          396      2.81%   9919.93%
                              68          326      2.31%   9922.24%
                              70          369      2.62%   9924.86%
                              72          417      2.96%   9927.81%
                              74          315      2.23%   9930.05%
                              76          716      5.08%   9935.13%
                              78         1391      9.87%   9944.99%
                              80          803      5.70%   9950.69%
                              82          285      2.02%   9952.71%
                              84          689      4.89%   9957.59%
                              86          728      5.16%   9962.76%
                              88          635      4.50%   9967.26%
                              90          992      7.04%   9974.30%
                              92          174      1.23%   9975.53%
                              94          285      2.02%   9977.55%
                              96          209      1.48%   9979.03%
                              98          133      0.94%   9979.98%
system.cpu0.IQ:residence:IprAccess.overflows         2823                      
system.cpu0.IQ:residence:IprAccess.max_value          373                      
system.cpu0.IQ:residence:IprAccess.end_dist

system.cpu0.IQ:residence:InstPrefetch.start_dist
system.cpu0.IQ:residence:InstPrefetch.samples            0                      
system.cpu0.IQ:residence:InstPrefetch.min_value            0                      
                               0            0                      
                               2            0                      
                               4            0                      
                               6            0                      
                               8            0                      
                              10            0                      
                              12            0                      
                              14            0                      
                              16            0                      
                              18            0                      
                              20            0                      
                              22            0                      
                              24            0                      
                              26            0                      
                              28            0                      
                              30            0                      
                              32            0                      
                              34            0                      
                              36            0                      
                              38            0                      
                              40            0                      
                              42            0                      
                              44            0                      
                              46            0                      
                              48            0                      
                              50            0                      
                              52            0                      
                              54            0                      
                              56            0                      
                              58            0                      
                              60            0                      
                              62            0                      
                              64            0                      
                              66            0                      
                              68            0                      
                              70            0                      
                              72            0                      
                              74            0                      
                              76            0                      
                              78            0                      
                              80            0                      
                              82            0                      
                              84            0                      
                              86            0                      
                              88            0                      
                              90            0                      
                              92            0                      
                              94            0                      
                              96            0                      
                              98            0                      
system.cpu0.IQ:residence:InstPrefetch.max_value            0                      
system.cpu0.IQ:residence:InstPrefetch.end_dist

system.cpu0.ISSUE:(null)_delay.start_dist 
system.cpu0.ISSUE:(null)_delay.samples           9712                      
system.cpu0.ISSUE:(null)_delay.min_value            1                      
                               0         8741   9000.21%   9000.21%
                               2          631    649.71%   9649.92%
                               4          162    166.80%   9816.72%
                               6           30     30.89%   9847.61%
                               8          128    131.80%   9979.41%
                              10            6      6.18%   9985.58%
                              12            4      4.12%   9989.70%
                              14            5      5.15%   9994.85%
                              16            1      1.03%   9995.88%
                              18            1      1.03%   9996.91%
                              20            3      3.09%  10000.00%
                              22            0      0.00%  10000.00%
                              24            0      0.00%  10000.00%
                              26            0      0.00%  10000.00%
                              28            0      0.00%  10000.00%
                              30            0      0.00%  10000.00%
                              32            0      0.00%  10000.00%
                              34            0      0.00%  10000.00%
                              36            0      0.00%  10000.00%
                              38            0      0.00%  10000.00%
                              40            0      0.00%  10000.00%
                              42            0      0.00%  10000.00%
                              44            0      0.00%  10000.00%
                              46            0      0.00%  10000.00%
                              48            0      0.00%  10000.00%
                              50            0      0.00%  10000.00%
                              52            0      0.00%  10000.00%
                              54            0      0.00%  10000.00%
                              56            0      0.00%  10000.00%
                              58            0      0.00%  10000.00%
                              60            0      0.00%  10000.00%
                              62            0      0.00%  10000.00%
                              64            0      0.00%  10000.00%
                              66            0      0.00%  10000.00%
                              68            0      0.00%  10000.00%
                              70            0      0.00%  10000.00%
                              72            0      0.00%  10000.00%
                              74            0      0.00%  10000.00%
                              76            0      0.00%  10000.00%
                              78            0      0.00%  10000.00%
                              80            0      0.00%  10000.00%
                              82            0      0.00%  10000.00%
                              84            0      0.00%  10000.00%
                              86            0      0.00%  10000.00%
                              88            0      0.00%  10000.00%
                              90            0      0.00%  10000.00%
                              92            0      0.00%  10000.00%
                              94            0      0.00%  10000.00%
                              96            0      0.00%  10000.00%
                              98            0      0.00%  10000.00%
system.cpu0.ISSUE:(null)_delay.max_value           21                      
system.cpu0.ISSUE:(null)_delay.end_dist

system.cpu0.ISSUE:IntAlu_delay.start_dist 
system.cpu0.ISSUE:IntAlu_delay.samples      124158744                      
system.cpu0.ISSUE:IntAlu_delay.min_value            0                      
                               0    112828512   9087.44%   9087.44%
                               2      5345242    430.52%   9517.96%
                               4      1812634    145.99%   9663.95%
                               6       791271     63.73%   9727.68%
                               8       467294     37.64%   9765.32%
                              10       335835     27.05%   9792.37%
                              12       423452     34.11%   9826.47%
                              14       806590     64.96%   9891.44%
                              16       601694     48.46%   9939.90%
                              18       274525     22.11%   9962.01%
                              20       211235     17.01%   9979.02%
                              22       248638     20.03%   9999.05%
                              24        11822      0.95%  10000.00%
                              26            0      0.00%  10000.00%
                              28            0      0.00%  10000.00%
                              30            0      0.00%  10000.00%
                              32            0      0.00%  10000.00%
                              34            0      0.00%  10000.00%
                              36            0      0.00%  10000.00%
                              38            0      0.00%  10000.00%
                              40            0      0.00%  10000.00%
                              42            0      0.00%  10000.00%
                              44            0      0.00%  10000.00%
                              46            0      0.00%  10000.00%
                              48            0      0.00%  10000.00%
                              50            0      0.00%  10000.00%
                              52            0      0.00%  10000.00%
                              54            0      0.00%  10000.00%
                              56            0      0.00%  10000.00%
                              58            0      0.00%  10000.00%
                              60            0      0.00%  10000.00%
                              62            0      0.00%  10000.00%
                              64            0      0.00%  10000.00%
                              66            0      0.00%  10000.00%
                              68            0      0.00%  10000.00%
                              70            0      0.00%  10000.00%
                              72            0      0.00%  10000.00%
                              74            0      0.00%  10000.00%
                              76            0      0.00%  10000.00%
                              78            0      0.00%  10000.00%
                              80            0      0.00%  10000.00%
                              82            0      0.00%  10000.00%
                              84            0      0.00%  10000.00%
                              86            0      0.00%  10000.00%
                              88            0      0.00%  10000.00%
                              90            0      0.00%  10000.00%
                              92            0      0.00%  10000.00%
                              94            0      0.00%  10000.00%
                              96            0      0.00%  10000.00%
                              98            0      0.00%  10000.00%
system.cpu0.ISSUE:IntAlu_delay.max_value           24                      
system.cpu0.ISSUE:IntAlu_delay.end_dist

system.cpu0.ISSUE:IntMult_delay.start_dist
system.cpu0.ISSUE:IntMult_delay.samples        385750                      
system.cpu0.ISSUE:IntMult_delay.min_value            0                      
                               0       290200   7523.01%   7523.01%
                               2        48024   1244.95%   8767.96%
                               4        23344    605.16%   9373.12%
                               6         6719    174.18%   9547.30%
                               8         1558     40.39%   9587.69%
                              10         2333     60.48%   9648.17%
                              12         1470     38.11%   9686.27%
                              14         1889     48.97%   9735.24%
                              16          668     17.32%   9752.56%
                              18         3571     92.57%   9845.13%
                              20         3333     86.40%   9931.54%
                              22         2160     55.99%   9987.53%
                              24          481     12.47%  10000.00%
                              26            0      0.00%  10000.00%
                              28            0      0.00%  10000.00%
                              30            0      0.00%  10000.00%
                              32            0      0.00%  10000.00%
                              34            0      0.00%  10000.00%
                              36            0      0.00%  10000.00%
                              38            0      0.00%  10000.00%
                              40            0      0.00%  10000.00%
                              42            0      0.00%  10000.00%
                              44            0      0.00%  10000.00%
                              46            0      0.00%  10000.00%
                              48            0      0.00%  10000.00%
                              50            0      0.00%  10000.00%
                              52            0      0.00%  10000.00%
                              54            0      0.00%  10000.00%
                              56            0      0.00%  10000.00%
                              58            0      0.00%  10000.00%
                              60            0      0.00%  10000.00%
                              62            0      0.00%  10000.00%
                              64            0      0.00%  10000.00%
                              66            0      0.00%  10000.00%
                              68            0      0.00%  10000.00%
                              70            0      0.00%  10000.00%
                              72            0      0.00%  10000.00%
                              74            0      0.00%  10000.00%
                              76            0      0.00%  10000.00%
                              78            0      0.00%  10000.00%
                              80            0      0.00%  10000.00%
                              82            0      0.00%  10000.00%
                              84            0      0.00%  10000.00%
                              86            0      0.00%  10000.00%
                              88            0      0.00%  10000.00%
                              90            0      0.00%  10000.00%
                              92            0      0.00%  10000.00%
                              94            0      0.00%  10000.00%
                              96            0      0.00%  10000.00%
                              98            0      0.00%  10000.00%
system.cpu0.ISSUE:IntMult_delay.max_value           24                      
system.cpu0.ISSUE:IntMult_delay.end_dist

system.cpu0.ISSUE:IntDiv_delay.start_dist 
system.cpu0.ISSUE:IntDiv_delay.samples              0                      
system.cpu0.ISSUE:IntDiv_delay.min_value            0                      
                               0            0                      
                               2            0                      
                               4            0                      
                               6            0                      
                               8            0                      
                              10            0                      
                              12            0                      
                              14            0                      
                              16            0                      
                              18            0                      
                              20            0                      
                              22            0                      
                              24            0                      
                              26            0                      
                              28            0                      
                              30            0                      
                              32            0                      
                              34            0                      
                              36            0                      
                              38            0                      
                              40            0                      
                              42            0                      
                              44            0                      
                              46            0                      
                              48            0                      
                              50            0                      
                              52            0                      
                              54            0                      
                              56            0                      
                              58            0                      
                              60            0                      
                              62            0                      
                              64            0                      
                              66            0                      
                              68            0                      
                              70            0                      
                              72            0                      
                              74            0                      
                              76            0                      
                              78            0                      
                              80            0                      
                              82            0                      
                              84            0                      
                              86            0                      
                              88            0                      
                              90            0                      
                              92            0                      
                              94            0                      
                              96            0                      
                              98            0                      
system.cpu0.ISSUE:IntDiv_delay.max_value            0                      
system.cpu0.ISSUE:IntDiv_delay.end_dist

system.cpu0.ISSUE:FloatAdd_delay.start_dist
system.cpu0.ISSUE:FloatAdd_delay.samples        10118                      
system.cpu0.ISSUE:FloatAdd_delay.min_value            0                      
                               0         5185   5124.53%   5124.53%
                               2          230    227.32%   5351.85%
                               4            5      4.94%   5356.79%
                               6          603    595.97%   5952.76%
                               8           49     48.43%   6001.19%
[...]
system.cpu0.kern.ipl_used_31                 0.779532                      
system.cpu0.kern.mode_good_kernel                3768                      
system.cpu0.kern.mode_good_user                  3453                      
system.cpu0.kern.mode_good_idle                   199                      
system.cpu0.kern.mode_good_interrupt              116                      
system.cpu0.kern.mode_switch_kernel             15045                      
system.cpu0.kern.mode_switch_user                3453                      
system.cpu0.kern.mode_switch_idle                6377                      
system.cpu0.kern.mode_switch_interrupt            116                      
system.cpu0.kern.mode_switch_good            0.301549                      
system.cpu0.kern.mode_switch_good_kernel     0.250449                      
system.cpu0.kern.mode_switch_good_user              1                      
system.cpu0.kern.mode_switch_good_idle       0.031206                      
system.cpu0.kern.mode_switch_good_interrupt            1                      
system.cpu0.kern.mode_ticks_kernel           76841045      7.66%      7.66%
system.cpu0.kern.mode_ticks_user             17213820      1.72%      9.37%
system.cpu0.kern.mode_ticks_idle            907835300     90.47%     99.85%
system.cpu0.kern.mode_ticks_interrupt         1554338      0.15%    100.00%
system.cpu0.kern.swap_context                    5758                      
system.cpu0.kern.syscall                         1105                      
system.cpu0.kern.syscall_exit                      23      2.08%      2.08%
system.cpu0.kern.syscall_fork                      12      1.09%      3.17%
system.cpu0.kern.syscall_read                      91      8.24%     11.40%
system.cpu0.kern.syscall_write                     93      8.42%     19.82%
system.cpu0.kern.syscall_close                     74      6.70%     26.52%
system.cpu0.kern.syscall_chdir                      2      0.18%     26.70%
system.cpu0.kern.syscall_chmod                      1      0.09%     26.79%
system.cpu0.kern.syscall_obreak                    62      5.61%     32.40%
system.cpu0.kern.syscall_lseek                     12      1.09%     33.48%
system.cpu0.kern.syscall_getpid                    75      6.79%     40.27%
system.cpu0.kern.syscall_setuid                     4      0.36%     40.63%
system.cpu0.kern.syscall_getuid                    12      1.09%     41.72%
system.cpu0.kern.syscall_access                     4      0.36%     42.08%
system.cpu0.kern.syscall_kill                      22      1.99%     44.07%
system.cpu0.kern.syscall_dup                        4      0.36%     44.43%
system.cpu0.kern.syscall_pipe                       1      0.09%     44.52%
system.cpu0.kern.syscall_open                      99      8.96%     53.48%
system.cpu0.kern.syscall_getgid                    12      1.09%     54.57%
system.cpu0.kern.syscall_sigprocmask               82      7.42%     61.99%
system.cpu0.kern.syscall_ioctl                     23      2.08%     64.07%
system.cpu0.kern.syscall_readlink                   3      0.27%     64.34%
system.cpu0.kern.syscall_execve                     9      0.81%     65.16%
system.cpu0.kern.syscall_pre_F64_stat              36      3.26%     68.42%
system.cpu0.kern.syscall_pre_F64_lstat              1      0.09%     68.51%
system.cpu0.kern.syscall_mmap                      90      8.14%     76.65%
system.cpu0.kern.syscall_munmap                    32      2.90%     79.55%
system.cpu0.kern.syscall_mprotect                  38      3.44%     82.99%
system.cpu0.kern.syscall_gethostname                3      0.27%     83.26%
system.cpu0.kern.syscall_dup2                       3      0.27%     83.53%
system.cpu0.kern.syscall_pre_F64_fstat             36      3.26%     86.79%
system.cpu0.kern.syscall_fcntl                     18      1.63%     88.42%
system.cpu0.kern.syscall_poll                      43      3.89%     92.31%
system.cpu0.kern.syscall_socket                     4      0.36%     92.67%
system.cpu0.kern.syscall_connect                    4      0.36%     93.03%
system.cpu0.kern.syscall_sigreturn                 43      3.89%     96.92%
system.cpu0.kern.syscall_sigsuspend                22      1.99%     98.91%
system.cpu0.kern.syscall_setgid                     4      0.36%     99.28%
system.cpu0.kern.syscall_getrlimit                  3      0.27%     99.55%
system.cpu0.kern.syscall_setsid                     3      0.27%     99.82%
system.cpu0.kern.syscall_getsysinfo                 1      0.09%     99.91%
system.cpu0.kern.syscall_setsysinfo                 1      0.09%    100.00%
system.cpu0.numCycles                      1003446159                      
system.cpu0inst_class_dist.start_dist
                   All ops ready            0      0.00%           
                One op not ready            0      0.00%           
           None rdy, mult chains            0      0.00%           
           None rdy, one chained            0      0.00%           
        None rdy, all self-timed            0      0.00%           
system.cpu0inst_class_dist.end_dist
system.htbus.addr_idle_cycles              1002470592                      
system.htbus.addr_idle_fraction              0.999028                      
system.htbus.addr_queued                    49.223167                      
system.htbus.addr_queued_cycles               6664866                      
system.htbus.addr_requests                     135401                      
system.htbus.bus_blocked                            0                      
system.htbus.bus_blocked_cycles                     0                      
system.htbus.bus_blocked_fraction                   0                      
system.htbus.data_idle_cycles              1002368870                      
system.htbus.data_idle_fraction              0.998926                      
system.htbus.data_queued                            1                      
system.htbus.data_queued_cycles                  9019                      
system.htbus.data_requests                       9019                      
system.htbus.null_grants                            0                      
system.kern.fnCalls                                 0                      
system.l2.avg_blocked_cycles_no_mshrs    <err: div-0>                      
system.l2.avg_blocked_cycles_no_targets  <err: div-0>                      
system.l2.avg_refs                           8.815591                      
system.l2.blocked_no_mshrs                          0                      
system.l2.blocked_no_targets                        0                      
system.l2.blocked_cycles_no_mshrs                   0                      
system.l2.blocked_cycles_no_targets                 0                      
system.l2.cache_copies                              0                      
system.l2.demand_accesses                     2553060                      
system.l2.demand_avg_miss_latency           71.885191                      
system.l2.demand_avg_mshr_miss_latency      42.178639                      
system.l2.demand_hits                         2220787                      
system.l2.demand_miss_latency                23885508                      
system.l2.demand_miss_rate                   0.130147                      
system.l2.demand_misses                        332273                      
system.l2.demand_mshr_hits                          0                      
system.l2.demand_mshr_miss_latency           14014823                      
system.l2.demand_mshr_miss_rate              0.130147                      
system.l2.demand_mshr_misses                   332273                      
system.l2.fast_writes                               0                      
system.l2.mshr_cap_events                           0                      
system.l2.no_allocate_misses                        0                      
system.l2.overall_accesses                    3245158                      
system.l2.overall_avg_miss_latency          71.885191                      
system.l2.overall_avg_mshr_miss_latency     42.178639                      
system.l2.overall_avg_mshr_uncacheable_latency   297.836494                      
system.l2.overall_hits                        2912885                      
system.l2.overall_miss_latency               23885508                      
system.l2.overall_miss_rate                  0.102390                      
system.l2.overall_misses                       332273                      
system.l2.overall_mshr_hits                         0                      
system.l2.overall_mshr_miss_latency          14014823                      
system.l2.overall_mshr_miss_rate             0.102390                      
system.l2.overall_mshr_misses                  332273                      
system.l2.overall_mshr_uncacheable_latency      6344513                      
system.l2.overall_mshr_uncacheable_misses        21302                      
system.l2.prefetcher.num_hwpf_already_in_cache            0                      
system.l2.prefetcher.num_hwpf_already_in_mshr            0                      
system.l2.prefetcher.num_hwpf_already_in_prefetcher            0                      
system.l2.prefetcher.num_hwpf_evicted               0                      
system.l2.prefetcher.num_hwpf_identified            0                      
system.l2.prefetcher.num_hwpf_issued                0                      
system.l2.prefetcher.num_hwpf_removed_MSHR_hit            0                      
system.l2.prefetcher.num_hwpf_span_page             0                      
system.l2.prefetcher.num_hwpf_squashed_from_miss            0                      
system.l2.read_accesses                       2553060                      
system.l2.read_avg_miss_latency             71.885191                      
system.l2.read_avg_mshr_miss_latency        42.178639                      
system.l2.read_avg_mshr_uncacheable_latency   279.785169                      
system.l2.read_hits                           2220787                      
system.l2.read_miss_latency                  23885508                      
system.l2.read_miss_rate                     0.130147                      
system.l2.read_misses                          332273                      
system.l2.read_mshr_miss_latency             14014823                      
system.l2.read_mshr_miss_rate                0.130147                      
system.l2.read_mshr_misses                     332273                      
system.l2.read_mshr_uncacheable                  9831                      
system.l2.read_mshr_uncacheable_latency       2750568                      
system.l2.replacements                         298140                      
system.l2.sampled_refs                         330341                      
system.l2.soft_prefetch_mshr_full                   0                      
system.l2.tagsinuse                      32663.738767                      
system.l2.total_refs                          2912151                      
system.l2.warmup_cycle                        3728314                      
system.l2.write_avg_mshr_uncacheable_latency   313.307035                      
system.l2.write_mshr_uncacheable                11471                      
system.l2.write_mshr_uncacheable_latency      3593945                      
system.l2.writeback_accesses                   692098                      
system.l2.writeback_hits                       692098                      
system.l2.writebacks                           147035                      
system.l2bus.addr_idle_cycles              1000112331                      
system.l2bus.addr_idle_fraction              0.996678                      
system.l2bus.addr_queued                     3.778347                      
system.l2bus.addr_queued_cycles              12592564                      
system.l2bus.addr_requests                    3332824                      
system.l2bus.bus_blocked                          212                      
system.l2bus.bus_blocked_cycles                110803                      
system.l2bus.bus_blocked_fraction            0.000110                      
system.l2bus.data_idle_cycles              1000179621                      
system.l2bus.data_idle_fraction              0.996745                      
system.l2bus.data_queued                     1.027247                      
system.l2bus.data_queued_cycles               2632750                      
system.l2bus.data_requests                    2562918                      
system.l2bus.null_grants                        35364                      
system.membus.addr_idle_cycles             1002823908                      
system.membus.addr_idle_fraction             0.999380                      
system.membus.addr_queued                   27.999765                      
system.membus.addr_queued_cycles             17414202                      
system.membus.addr_requests                    621941                      
system.membus.bus_blocked                           0                      
system.membus.bus_blocked_cycles                    0                      
system.membus.bus_blocked_fraction                  0                      
system.membus.data_idle_cycles             1001287176                      
system.membus.data_idle_fraction             0.997848                      
system.membus.data_queued                    4.908758                      
system.membus.data_queued_cycles              1680425                      
system.membus.data_requests                    342332                      
system.membus.null_grants                           0                      
system.pcibus.addr_idle_cycles             1001990624                      
system.pcibus.addr_idle_fraction             0.998549                      
system.pcibus.addr_queued                  761.830112                      
system.pcibus.addr_queued_cycles            103152559                      
system.pcibus.addr_requests                    135401                      
system.pcibus.bus_blocked                        3427                      
system.pcibus.bus_blocked_cycles               119942                      
system.pcibus.bus_blocked_fraction           0.000120                      
system.pcibus.data_idle_cycles             1000776356                      
system.pcibus.data_idle_fraction             0.997339                      
system.pcibus.data_queued                    4.344162                      
system.pcibus.data_queued_cycles                39180                      
system.pcibus.data_requests                      9019                      
system.pcibus.null_grants                           0                      
system.ram.accesses                            534352                      
system.ram.bytes_requested                          0                      
system.ram.bytes_sent                               0                      
system.ram.compressed_responses                     0                      
system.tsunami.etherdev0.coalescedRxDesc <err: div-0>                      
system.tsunami.etherdev0.coalescedRxIdle <err: div-0>                      
system.tsunami.etherdev0.coalescedRxOk   <err: div-0>                      
system.tsunami.etherdev0.coalescedRxOrn  <err: div-0>                      
system.tsunami.etherdev0.coalescedSwi    <err: div-0>                      
system.tsunami.etherdev0.coalescedTotal  <err: div-0>                      
system.tsunami.etherdev0.coalescedTxDesc <err: div-0>                      
system.tsunami.etherdev0.coalescedTxIdle <err: div-0>                      
system.tsunami.etherdev0.coalescedTxOk   <err: div-0>                      
system.tsunami.etherdev0.descDMAReads               0                      
system.tsunami.etherdev0.descDMAWrites              0                      
system.tsunami.etherdev0.descDmaReadBytes            0                      
system.tsunami.etherdev0.descDmaWriteBytes            0                      
system.tsunami.etherdev0.dma.avg_large_transaction_latency <err: div-0>                      
system.tsunami.etherdev0.dma.avg_small_transaction_latency <err: div-0>                      
system.tsunami.etherdev0.dma.avg_transaction_latency <err: div-0>                      
system.tsunami.etherdev0.dma.bytes_transfered            0                      
system.tsunami.etherdev0.dma.large_transaction_latency            0                      
system.tsunami.etherdev0.dma.large_transactions            0                      
system.tsunami.etherdev0.dma.packets_sent            0                      
system.tsunami.etherdev0.dma.requests               0                      
system.tsunami.etherdev0.dma.round_trip_latency <err: div-0>                      
system.tsunami.etherdev0.dma.small_transaction_latency            0                      
system.tsunami.etherdev0.dma.small_transactions            0                      
system.tsunami.etherdev0.dma.total_cycle_latency            0                      
system.tsunami.etherdev0.dma.transaction_latency            0                      
system.tsunami.etherdev0.droppedPackets             0                      
system.tsunami.etherdev0.postedInterrupts            0                      
system.tsunami.etherdev0.postedRxDesc               0                      
system.tsunami.etherdev0.postedRxIdle               0                      
system.tsunami.etherdev0.postedRxOk                 0                      
system.tsunami.etherdev0.postedRxOrn                0                      
system.tsunami.etherdev0.postedSwi                  0                      
system.tsunami.etherdev0.postedTxDesc               0                      
system.tsunami.etherdev0.postedTxIdle               0                      
system.tsunami.etherdev0.postedTxOk                 0                      
system.tsunami.etherdev0.totalRxDesc                0                      
system.tsunami.etherdev0.totalRxIdle                0                      
system.tsunami.etherdev0.totalRxOk                  0                      
system.tsunami.etherdev0.totalRxOrn                 0                      
system.tsunami.etherdev0.totalSwi                   0                      
system.tsunami.etherdev0.totalTxDesc                0                      
system.tsunami.etherdev0.totalTxIdle                0                      
system.tsunami.etherdev0.totalTxOk                  0                      
system.tsunami.ide.dma.avg_large_transaction_latency  3763.832700                      
system.tsunami.ide.dma.avg_small_transaction_latency   319.721698                      
system.tsunami.ide.dma.avg_transaction_latency  2774.467480                      
system.tsunami.ide.dma.bytes_transfered       3522160                      
system.tsunami.ide.dma.large_transaction_latency      1979776                      
system.tsunami.ide.dma.large_transactions          526                      
system.tsunami.ide.dma.packets_sent             55044                      
system.tsunami.ide.dma.requests                   738                      
system.tsunami.ide.dma.round_trip_latency  2122.988591                      
system.tsunami.ide.dma.small_transaction_latency        67781                      
system.tsunami.ide.dma.small_transactions          212                      
system.tsunami.ide.dma.total_cycle_latency    116857784                      
system.tsunami.ide.dma.transaction_latency      2047557                      

---------- End Simulation Statistics   ----------
